<?xml version="1.0" encoding="UTF-8"?>
<flow id="ce750242-6470-418b-95fa-a41a958cd06f">
  <descriptionCdata><![CDATA[ce750242-6470-418b-95fa-a41a958cd06f.21ac6b8a-bf60-4954-8c91-5bf377432a11.description=<pre>\n\nDisplays a message to the user.\n\nInputs\:\n  message - The message text to display\n  title - The title on the message window. Defaults to "Status message".\n\nResponses\:\n  Always returns success.\n\nExamples\:\n  In order to display the message "Finished" to the user, go to the \n  detail screen for the input named "message" and change the Otherwise option\n  from Prompt User to Use Constant.  Then enter the text "Finished" into the\n  Constant Value field.\n\n  References to flow variables in the Contant Value field are expanded so that\n  the text may be dynamic.  Flow variable references are of the form\n  ${variable}.  For example, the text\:\n     ${count} systems were modified \n  could be used to display a message about the number of systems that were\n  repaired, whose value is in the flow variable "count".\n\n  When the message is displayed, it will properly render any embedded html\n  tags, which permits creating messages with more advanced formatting.  For \n  example to display a message in italics you could use\:\n    <i>This is important</i>\n  or to display a message in red\:\n    <i>This is <span style\="color\: red">really </span> important</i>\n\n  You can create messages that contain multiple lines by entering a multiple\n  line message in the Constant Value field, or by using HTML <BR> tags for line\n  breaks.  Note that \\n characters are displayed literally and are not used for\n  creating multiple lines.\n\n</pre>\n
ce750242-6470-418b-95fa-a41a958cd06f.373deed3-0f19-485c-8dfd-d01f40d13a1e.description=<pre>\nThis operation does not do anything. It can be used to filter flow variables by defining them as inputs and filtering them in the Results tab.\n\nInputs\:\n    field1 \u2013 An optional input that can be used for filtering flow variables.\n    field2 \u2013 An optional input that can be used for filtering flow variables.\n    field3 \u2013 An optional input that can be used for filtering flow variables.\n    field4 \u2013 An optional input that can be used for filtering flow variables.\n\nResults\:\n    returnResult - This is the primary output. It contains the value of  "field1" as it was specified at input or when filtered. \n\nResponses\:\n    success - The operation completed as stated in the description.\n</pre>
ce750242-6470-418b-95fa-a41a958cd06f.81ab8880-b249-4b24-85ef-0d7ff6cc8152.prompt=Enter no.of days\:
ce750242-6470-418b-95fa-a41a958cd06f.aafeebad-68bd-4b78-bee4-327482d4a971.description=<pre>\nCheck the current date and time, and returns a java DateAndTime formatted string of it. If locale is specified, it will return the date and time string based on the locale.Otherwise, default locale will be used.\n\nInputs\:\n    localeLang - The locale language for date and time string. \nExamples\:  en, ja, unix.\n    localeCountry - The locale country for date and time string. For example, US or JP. If localeLang is not specified, this input will be ingored.\n\nResult\:\n    Current date and time.\n\nResponses\:\n    success - Date/time retrieved successfully.   \n    failure - Date/time could not be retrieved.\n\nNotes.\n    1. If localeLang is 'unix' the localeCountry input is ignored and the result will be the current UNIX timestamp.\n</pre>
]]></descriptionCdata>
  <annotation></annotation>
  <name>date_operations_flow</name>
  <categories/>
  <inputs/>
  <possibleResponses>
    <opResponse id="9916ec8e-f2d1-4996-b65b-02b51ce9323d">
      <annotation></annotation>
      <name>success</name>
      <isDefault>true</isDefault>
      <onFailure>false</onFailure>
      <type>RESOLVED</type>
      <matchRules/>
    </opResponse>
    <opResponse id="2e48852c-48e4-4242-bdfa-f4f7ddce28a1">
      <annotation></annotation>
      <name>failure</name>
      <isDefault>false</isDefault>
      <onFailure>true</onFailure>
      <type>ERROR</type>
      <matchRules/>
    </opResponse>
  </possibleResponses>
  <availableResultExpressions/>
  <resultExpression id="b528f789-a738-4ed3-ada0-56ebe6f6a445">
    <annotation></annotation>
    <name>FailureMessage</name>
    <fieldName>FailureMessage</fieldName>
    <sourceType>RAWRESULT</sourceType>
    <filters/>
  </resultExpression>
  <iconSpec id="420b14f8-8dac-4b30-a3f6-ada9ad485272">
    <baseIcon>flow.png</baseIcon>
    <basePath>System</basePath>
    <readOnly>false</readOnly>
    <layers/>
  </iconSpec>
  <callouts/>
  <checkPointFlow>true</checkPointFlow>
  <compatibleRuntimeContext>false</compatibleRuntimeContext>
  <historyCheckPointFlow>true</historyCheckPointFlow>
  <steps>
    <step id="aafeebad-68bd-4b78-bee4-327482d4a971">
      <annotation>ce750242-6470-418b-95fa-a41a958cd06f.aafeebad-68bd-4b78-bee4-327482d4a971.description</annotation>
      <name>Get Current Date and Time</name>
      <bounds>
        <x>248.0</x>
        <y>107.0</y>
      </bounds>
      <layer>-1</layer>
      <hideInbound>false</hideInbound>
      <addResultToRunContext>false</addResultToRunContext>
      <isCriticalStep>false</isCriticalStep>
      <isNonBlocking>false</isNonBlocking>
      <isParallelStep>false</isParallelStep>
      <isSingleResponse>false</isSingleResponse>
      <recordInHistory>false</recordInHistory>
      <recordRawOutput>true</recordRawOutput>
      <recordPrimaryOutput>true</recordPrimaryOutput>
      <checkPointStep>true</checkPointStep>
      <historyCheckPointStep>true</historyCheckPointStep>
      <scriptResultStep>false</scriptResultStep>
      <userPrompt></userPrompt>
      <bindings>
        <staticBinding id="17141e95-04ac-4f4b-ac35-fe1342451f8a">
          <annotation></annotation>
          <assignFromContext>false</assignFromContext>
          <assignToContext>false</assignToContext>
          <inputType>STRING</inputType>
          <isList>false</isList>
          <required>false</required>
          <isPersisted>true</isPersisted>
          <inputSymbol>localeLang</inputSymbol>
          <listDelimiter>,</listDelimiter>
          <record>false</record>
        </staticBinding>
        <staticBinding id="8540b75b-e974-476a-b9db-53e2263890b0">
          <annotation></annotation>
          <assignFromContext>false</assignFromContext>
          <assignToContext>false</assignToContext>
          <inputType>STRING</inputType>
          <isList>false</isList>
          <required>false</required>
          <isPersisted>true</isPersisted>
          <inputSymbol>localeCountry</inputSymbol>
          <listDelimiter>,</listDelimiter>
          <record>false</record>
        </staticBinding>
      </bindings>
      <transitions>
        <transition id="824b292b-0711-490f-99df-b0273e897538">
          <annotation></annotation>
          <name>failure</name>
          <command>NEXT</command>
          <linkMode>false</linkMode>
          <responseSymbol>failure</responseSymbol>
          <shouldHandoff>false</shouldHandoff>
          <transitionValue>0.0</transitionValue>
          <destination>
            <refId>dba7dd3f-3dad-438b-a8a3-b1822aa0618f</refId>
          </destination>
          <source>
            <refId>aafeebad-68bd-4b78-bee4-327482d4a971</refId>
          </source>
          <positions>
            <point>
              <x>298.0</x>
              <y>141.0</y>
            </point>
            <point>
              <x>496.0</x>
              <y>427.0</y>
            </point>
          </positions>
          <labelPosition>
            <x>333.0</x>
            <y>0.0</y>
          </labelPosition>
        </transition>
        <transition id="6a5a1227-294b-472a-8f4a-65718ac7172a">
          <annotation></annotation>
          <name>success</name>
          <command>NEXT</command>
          <linkMode>false</linkMode>
          <responseSymbol>success</responseSymbol>
          <shouldHandoff>false</shouldHandoff>
          <transitionValue>0.0</transitionValue>
          <destination>
            <refId>373deed3-0f19-485c-8dfd-d01f40d13a1e</refId>
          </destination>
          <source>
            <refId>aafeebad-68bd-4b78-bee4-327482d4a971</refId>
          </source>
          <positions>
            <point>
              <x>298.0</x>
              <y>141.0</y>
            </point>
            <point>
              <x>578.0</x>
              <y>283.0</y>
            </point>
          </positions>
          <labelPosition>
            <x>333.0</x>
            <y>0.0</y>
          </labelPosition>
        </transition>
      </transitions>
      <properties/>
      <opRef>
        <refId>237a5c37-ecbc-4ef1-af37-034e6f7e8f62</refId>
      </opRef>
      <assignments>
        <flowVariableAssignment id="20608689-a8e2-48f0-8d65-0dc340f348a0">
          <annotation></annotation>
          <name>assignment</name>
          <action>OVERWRITE</action>
          <assignmentTargetType>FLOW_VARIABLE</assignmentTargetType>
          <contextKey>date</contextKey>
          <expression id="8bf53828-6796-4835-92f0-df3db50ad810">
            <annotation></annotation>
            <name>Result Field: returnResult</name>
            <fieldName>returnResult</fieldName>
            <sourceType>RAWRESULT</sourceType>
            <filters/>
          </expression>
        </flowVariableAssignment>
      </assignments>
      <throttleSize>0</throttleSize>
    </step>
    <returnStep id="57fb031a-c868-4e9a-b56f-bad2a8a6beb9">
      <annotation></annotation>
      <name>Resolved : success</name>
      <bounds>
        <x>852.0</x>
        <y>198.0</y>
      </bounds>
      <layer>-1</layer>
      <hideInbound>false</hideInbound>
      <addResultToRunContext>false</addResultToRunContext>
      <isCriticalStep>false</isCriticalStep>
      <isNonBlocking>false</isNonBlocking>
      <isParallelStep>false</isParallelStep>
      <isSingleResponse>false</isSingleResponse>
      <recordInHistory>false</recordInHistory>
      <recordRawOutput>true</recordRawOutput>
      <recordPrimaryOutput>true</recordPrimaryOutput>
      <checkPointStep>true</checkPointStep>
      <historyCheckPointStep>true</historyCheckPointStep>
      <scriptResultStep>false</scriptResultStep>
      <userPrompt></userPrompt>
      <bindings/>
      <transitions>
        <transition id="6fd09f56-24fd-4219-a975-9fb030ac3e8e">
          <annotation></annotation>
          <name>return</name>
          <command>NEXT</command>
          <linkMode>false</linkMode>
          <responseSymbol>success</responseSymbol>
          <shouldHandoff>false</shouldHandoff>
          <transitionValue>0.0</transitionValue>
          <destination>
            <refId>57fb031a-c868-4e9a-b56f-bad2a8a6beb9</refId>
          </destination>
          <source>
            <refId>57fb031a-c868-4e9a-b56f-bad2a8a6beb9</refId>
          </source>
          <positions/>
        </transition>
      </transitions>
      <properties/>
      <returnStepType>RESOLVED</returnStepType>
      <assignments/>
    </returnStep>
    <returnStep id="dba7dd3f-3dad-438b-a8a3-b1822aa0618f">
      <annotation></annotation>
      <name>Error : failure</name>
      <bounds>
        <x>446.0</x>
        <y>393.0</y>
      </bounds>
      <layer>-1</layer>
      <hideInbound>false</hideInbound>
      <addResultToRunContext>false</addResultToRunContext>
      <isCriticalStep>false</isCriticalStep>
      <isNonBlocking>false</isNonBlocking>
      <isParallelStep>false</isParallelStep>
      <isSingleResponse>false</isSingleResponse>
      <recordInHistory>false</recordInHistory>
      <recordRawOutput>true</recordRawOutput>
      <recordPrimaryOutput>true</recordPrimaryOutput>
      <checkPointStep>true</checkPointStep>
      <historyCheckPointStep>true</historyCheckPointStep>
      <scriptResultStep>false</scriptResultStep>
      <userPrompt></userPrompt>
      <bindings/>
      <transitions>
        <transition id="ba533b08-7802-4110-9af1-4095960f5133">
          <annotation></annotation>
          <name>return</name>
          <command>NEXT</command>
          <linkMode>false</linkMode>
          <responseSymbol>failure</responseSymbol>
          <shouldHandoff>false</shouldHandoff>
          <transitionValue>0.0</transitionValue>
          <destination>
            <refId>dba7dd3f-3dad-438b-a8a3-b1822aa0618f</refId>
          </destination>
          <source>
            <refId>dba7dd3f-3dad-438b-a8a3-b1822aa0618f</refId>
          </source>
          <positions/>
        </transition>
      </transitions>
      <properties/>
      <returnStepType>ERROR</returnStepType>
      <assignments/>
    </returnStep>
    <step id="373deed3-0f19-485c-8dfd-d01f40d13a1e">
      <annotation>ce750242-6470-418b-95fa-a41a958cd06f.373deed3-0f19-485c-8dfd-d01f40d13a1e.description</annotation>
      <name>calculation</name>
      <bounds>
        <x>484.0</x>
        <y>113.0</y>
      </bounds>
      <layer>-1</layer>
      <hideInbound>false</hideInbound>
      <addResultToRunContext>false</addResultToRunContext>
      <isCriticalStep>false</isCriticalStep>
      <isNonBlocking>false</isNonBlocking>
      <isParallelStep>false</isParallelStep>
      <isSingleResponse>false</isSingleResponse>
      <recordInHistory>false</recordInHistory>
      <recordRawOutput>true</recordRawOutput>
      <recordPrimaryOutput>true</recordPrimaryOutput>
      <checkPointStep>true</checkPointStep>
      <historyCheckPointStep>true</historyCheckPointStep>
      <scriptResultStep>false</scriptResultStep>
      <userPrompt></userPrompt>
      <scriptlet id="914bdde7-ab3f-4bef-86e5-efb5add8e6d5">
        <annotation></annotation>
        <name>Step calculation in Flow date_operations_flow (373deed3-0f19-485c-8dfd-d01f40d13a1e)</name>
        <script></script>
        <type>NASHORN</type>
      </scriptlet>
      <bindings>
        <userInputBinding id="81ab8880-b249-4b24-85ef-0d7ff6cc8152">
          <annotation></annotation>
          <assignFromContext>false</assignFromContext>
          <assignToContext>false</assignToContext>
          <inputType>STRING</inputType>
          <isList>false</isList>
          <required>false</required>
          <isPersisted>true</isPersisted>
          <inputSymbol>field1</inputSymbol>
          <listDelimiter>,</listDelimiter>
          <record>false</record>
          <prompt>ce750242-6470-418b-95fa-a41a958cd06f.81ab8880-b249-4b24-85ef-0d7ff6cc8152.prompt</prompt>
          <isMultiSelect>false</isMultiSelect>
          <sourceDelimiter>|</sourceDelimiter>
        </userInputBinding>
      </bindings>
      <transitions>
        <transition id="44935335-d2a3-4608-ade8-0dd892aa729e">
          <annotation></annotation>
          <name>success</name>
          <command>NEXT</command>
          <linkMode>false</linkMode>
          <responseSymbol>success</responseSymbol>
          <shouldHandoff>false</shouldHandoff>
          <transitionValue>0.0</transitionValue>
          <destination>
            <refId>21ac6b8a-bf60-4954-8c91-5bf377432a11</refId>
          </destination>
          <source>
            <refId>373deed3-0f19-485c-8dfd-d01f40d13a1e</refId>
          </source>
          <positions>
            <point>
              <x>534.0</x>
              <y>147.0</y>
            </point>
            <point>
              <x>772.0</x>
              <y>272.0</y>
            </point>
          </positions>
          <labelPosition>
            <x>333.0</x>
            <y>0.0</y>
          </labelPosition>
        </transition>
      </transitions>
      <properties/>
      <opRef>
        <refId>ddd79f22-8b1e-4605-88d5-d912bb2da2b9</refId>
      </opRef>
      <assignments>
        <flowVariableAssignment id="d4e1705a-762c-49f4-9a8c-7cebe3c3023d">
          <annotation></annotation>
          <name>assignment</name>
          <action>OVERWRITE</action>
          <assignmentTargetType>FLOW_VARIABLE</assignmentTargetType>
          <contextKey>resultDate</contextKey>
          <expression id="2efeedf9-bff0-4e9f-81b9-a0c0d3238540">
            <annotation></annotation>
            <name>Input: field1</name>
            <fieldName>field1</fieldName>
            <sourceType>INPUT</sourceType>
            <filters>
              <scriptletFilter id="33dbd44a-d523-4349-bed2-370d4fad0da2">
                <annotation></annotation>
                <name>Scriptlet</name>
                <scriptlet id="4ca6169a-bd4b-44c5-830d-9ba3408ba887">
                  <annotation></annotation>
                  <name>default</name>
                  <script>if (scriptletInput !== null) {
	var x=new java.util.Date();
	var i=1;
	var days=scriptletInput;
	do
	{
	  if (x.getDay()==0 || x.getDay()==6)
	  {
	     x=new Date(x.getTime()+(1*86400000));
	  }
	  else
	  {
	     x=new Date(x.getTime()+(1*86400000));
	     i+=1;
	   }
	}while (i&lt;=days)
  scriptletResult = &apos;Result Date: &apos; +x
}</script>
                  <type>RHINO</type>
                </scriptlet>
              </scriptletFilter>
            </filters>
          </expression>
        </flowVariableAssignment>
      </assignments>
      <throttleSize>0</throttleSize>
    </step>
    <step id="21ac6b8a-bf60-4954-8c91-5bf377432a11">
      <annotation>ce750242-6470-418b-95fa-a41a958cd06f.21ac6b8a-bf60-4954-8c91-5bf377432a11.description</annotation>
      <name>Display Message</name>
      <bounds>
        <x>722.0</x>
        <y>238.0</y>
      </bounds>
      <layer>-1</layer>
      <hideInbound>false</hideInbound>
      <addResultToRunContext>false</addResultToRunContext>
      <isCriticalStep>false</isCriticalStep>
      <isNonBlocking>false</isNonBlocking>
      <isParallelStep>false</isParallelStep>
      <isSingleResponse>false</isSingleResponse>
      <recordInHistory>false</recordInHistory>
      <recordRawOutput>true</recordRawOutput>
      <recordPrimaryOutput>true</recordPrimaryOutput>
      <checkPointStep>true</checkPointStep>
      <historyCheckPointStep>true</historyCheckPointStep>
      <scriptResultStep>false</scriptResultStep>
      <userPrompt></userPrompt>
      <bindings>
        <staticBinding id="50149f8d-5263-4856-984a-4cc4d71ee48b">
          <annotation></annotation>
          <fromContextKey>resultDate</fromContextKey>
          <assignFromContext>true</assignFromContext>
          <assignToContext>false</assignToContext>
          <inputType>STRING</inputType>
          <isList>false</isList>
          <required>true</required>
          <isPersisted>true</isPersisted>
          <inputSymbol>message</inputSymbol>
          <listDelimiter>,</listDelimiter>
          <value></value>
          <record>false</record>
        </staticBinding>
        <staticBinding id="c9021a42-bb54-422c-b8a2-1400537fca38">
          <annotation></annotation>
          <assignFromContext>false</assignFromContext>
          <assignToContext>false</assignToContext>
          <inputType>STRING</inputType>
          <isList>false</isList>
          <required>false</required>
          <isPersisted>true</isPersisted>
          <inputSymbol>title</inputSymbol>
          <listDelimiter>,</listDelimiter>
          <value>result date</value>
          <record>false</record>
        </staticBinding>
      </bindings>
      <transitions>
        <transition id="545c767c-ec88-4d9e-92b8-1e208572f4a1">
          <annotation></annotation>
          <name>success</name>
          <command>NEXT</command>
          <linkMode>false</linkMode>
          <responseSymbol>success</responseSymbol>
          <shouldHandoff>false</shouldHandoff>
          <transitionValue>0.0</transitionValue>
          <destination>
            <refId>57fb031a-c868-4e9a-b56f-bad2a8a6beb9</refId>
          </destination>
          <source>
            <refId>21ac6b8a-bf60-4954-8c91-5bf377432a11</refId>
          </source>
          <positions>
            <point>
              <x>772.0</x>
              <y>272.0</y>
            </point>
            <point>
              <x>902.0</x>
              <y>232.0</y>
            </point>
          </positions>
          <labelPosition>
            <x>333.0</x>
            <y>0.0</y>
          </labelPosition>
        </transition>
      </transitions>
      <properties/>
      <opRef>
        <refId>434e6fa2-26bc-4e84-9e1f-0aa6946cf920</refId>
      </opRef>
      <assignments/>
      <throttleSize>0</throttleSize>
    </step>
  </steps>
  <startSteps>aafeebad-68bd-4b78-bee4-327482d4a971</startSteps>
</flow>