<?xml version="1.0" encoding="UTF-8"?>
<flow id="2c0fe744-665b-4017-b66c-a065c571db69">
  <descriptionCdata><![CDATA[2c0fe744-665b-4017-b66c-a065c571db69.3d9bddf0-3ad7-47bf-8840-e84a4b3559c9.description=<pre>\n\nDisplays a message to the user.\n\nInputs\:\n  message - The message text to display\n  title - The title on the message window. Defaults to "Status message".\n\nResponses\:\n  Always returns success.\n\nExamples\:\n  In order to display the message "Finished" to the user, go to the \n  detail screen for the input named "message" and change the Otherwise option\n  from Prompt User to Use Constant.  Then enter the text "Finished" into the\n  Constant Value field.\n\n  References to flow variables in the Contant Value field are expanded so that\n  the text may be dynamic.  Flow variable references are of the form\n  ${variable}.  For example, the text\:\n     ${count} systems were modified \n  could be used to display a message about the number of systems that were\n  repaired, whose value is in the flow variable "count".\n\n  When the message is displayed, it will properly render any embedded html\n  tags, which permits creating messages with more advanced formatting.  For \n  example to display a message in italics you could use\:\n    <i>This is important</i>\n  or to display a message in red\:\n    <i>This is <span style\="color\: red">really </span> important</i>\n\n  You can create messages that contain multiple lines by entering a multiple\n  line message in the Constant Value field, or by using HTML <BR> tags for line\n  breaks.  Note that \\n characters are displayed literally and are not used for\n  creating multiple lines.\n\n</pre>\n
2c0fe744-665b-4017-b66c-a065c571db69.555fee1f-fc11-408f-a286-ce5c6ad48ebc.description=<pre>This is a soft copy of 'Http Client' customized for the GET method (the input 'method'\='GET' should not be changed). Check the linked 'Http Client' operation.\n\nInputs\n    url - The web address to make the request to. This must be a standard URL as specified in RFC 3986. This is a required input.\nFormat\: scheme\://domain\:port/path?query_string\#fragment_id\nExamples\: https\://[fe80\:\:1260\:4bff\:fe49\:42fc]\:8080/my/path?key1\=val1&key2\=val2\#my_fragment\n    authType - The type of authentication used by this operation when trying to execute the request on the target server. The authentication is not preemptive\: a plain request not including authentication info will be made and only when the server responds with a 'WWW-Authenticate' header the client will send required headers. If the server needs no authentication but you specify one in this input the request will work nevertheless. The client cannot choose the authentication method and there is no fallback so you have to know which one you need. If the web application and proxy use different authentication types, these must be specified like in the Example model. \nDefault value\: Basic\nValid values\: Basic, digest, ntlm, kerberos, any, anonymous, "" or a list of valid values separated by comma.\nExample\: Basic,digest\n    username - The user name used for authentication. For NTLM authentication, the required format is 'domain\\user' and if you only specify the 'user' it will append a dot like '.\\user' so that a local user on the target machine can be used. In order for all authentication schemes to work (except Kerberos) username is required.\n    password - The password used for authentication.\n    preemptiveAuth - If this field is 'true' authentication info will be sent in the first request. If this is 'false' a request with no authentication info will be made and if server responds with 401 and a header like WWW-Authenticate\: Basic realm\="myRealm" only then the authentication info will be sent.\nDefault value\: true\nValid values\: true, false\n    proxyHost - The proxy server used to access the web site.\n    proxyPort - The proxy server port. Default value\: 8080. Valid values\: -1, and positive integer values. When the value is '-1' the default port of the scheme, specified in the 'proxyHost', will be used.\n    proxyUsername - The user name used when connecting to the proxy. The 'authType' input will be used to choose authentication type. The 'Basic' and 'Digest' proxy auth type are supported.\n    proxyPassword - The proxy server password associated with the proxyUsername input value.\n    tlsVersion  - This input allows a list of comma seperated values of the specific protocols to be used.Valid values SSLv3, TLSv1,TLSv1.1,TLSv1.2\nDefault value\:TLSv1.2\n    allowedCyphers - A comma delimited list of cyphers to use. The value of this input will be ignored if 'tlsVersion' does not contain 'TLSv1.2'. This capability is provided \u201Cas is\u201D, please see product documentation for further security considerations. In order to connect successfully to the target host, it should accept at least one of the following cyphers. If this is not the case, it is the user's responsibility to configure the host accordingly or to update the list of allowed cyphers.\nDefault values\: TLS_DHE_RSA_WITH_AES_256_GCM_SHA384,TLS_ECDHE_RSA_WITH_AES_128_GCM_SHA256,TLS_DHE_RSA_WITH_AES_256_CBC_SHA256,TLS_DHE_RSA_WITH_AES_128_CBC_SHA256,TLS_ECDHE_RSA_WITH_AES_256_CBC_SHA384,TLS_ECDHE_RSA_WITH_AES_128_CBC_SHA256,TLS_ECDHE_ECDSA_WITH_AES_128_CBC_SHA256,TLS_ECDHE_ECDSA_WITH_AES_128_GCM_SHA256,TLS_RSA_WITH_AES_256_GCM_SHA384,TLS_RSA_WITH_AES_256_CBC_SHA256,TLS_RSA_WITH_AES_128_CBC_SHA256\n    trustAllRoots - Specifies whether to enable weak security over SSL/TSL. A certificate is trusted even if no trusted certification authority issued it.\nDefault value\: false\nValid values\: true, false\n    x509HostnameVerifier - Specifies the way the server hostname must match a domain name in the subject's Common Name (CN) or subjectAltName field of the X.509 certificate. The hostname verification system prevents communication with other hosts other than the ones you intended. This is done by checking that the hostname is in the subject alternative name extension of the certificate. This system is designed to ensure that, if an attacker(Man In The Middle) redirects traffic to his machine, the client will not accept the connection. If you set this input to "allow_all", this verification is ignored and you become vulnerable to security attacks. For the value "browser_compatible" the hostname verifier works the same way as Curl and Firefox. The hostname must match either the first CN, or any of the subject-alts. A wildcard can occur in the CN, and in any of the subject-alts. The only difference between "browser_compatible" and "strict" is that a wildcard (such as "*.foo.com") with "browser_compatible" matches all subdomains, including "a.b.foo.com". From the security perspective, to provide protection against possible Man-In-The-Middle attacks, we strongly recommend to use "strict" option.\nDefault value\: strict\nValid values\: strict, browser_compatible, allow_all\n    trustKeystore - The pathname of the Java TrustStore file. This contains certificates from other parties that you expect to communicate with, or from Certificate Authorities that you trust to identify other parties.  If the protocol (specified by the 'url') is not 'https' or if trustAllRoots is 'true' this input is ignored.\nDefault value\: <OO_Home>/java/lib/security/cacerts\nFormat\: Java KeyStore (JKS)\n    trustPassword - The password associated with the TrustStore file. If trustAllRoots is false and trustKeystore is empty, trustPassword default will be supplied.\nDefault value\: changeit\n    keystore - The pathname of the Java KeyStore file. You only need this if the server requires client authentication. If the protocol (specified by the 'url') is not 'https' or if trustAllRoots is 'true' this input is ignored.\nDefault value\: <OO_Home>/java/lib/security/cacerts\nFormat\: Java KeyStore (JKS)\n    keystorePassword - The password associated with the KeyStore file. If trustAllRoots is false and keystore is empty, keystorePassword default will be supplied.\nDefault value\: changeit\n    connectTimeout - The time to wait for a connection to be established, in seconds. A timeout value of '0' represents an infinite timeout.\nDefault value\: 0\nFormat\: an integer representing seconds\nExamples\: 10, 20\n    socketTimeout - The timeout for waiting for data (a maximum period inactivity between two consecutive data packets), in seconds. A socketTimeout value of '0' represents an infinite timeout.\nDefault value\: 0\nFormat\: an integer representing seconds\n    useCookies - Specifies whether to enable cookie tracking or not. Cookies are stored between consecutive calls in a serializable session object therefore they will be available on a branch level (same subflow, same lane). If you specify a non-boolean value, the default value is used.\nDefault value\: true\nValid values\: true,false\n    keepAlive - Specifies whether to create a shared connection that will be used in subsequent calls. If keepAlive is false, the already open connection will be used and after execution it will close it. The operation will use a connection pool stored in a GlobalSessionObject that will be available throughout the execution (the flow and subflows, between parallel split lanes).\nDefault value\: true\nValid values\: true, false\n    connectionsMaxPerRoute - The maximum limit of connections on a per route basis. The default will create no more than 2 concurrent connections per given route.\nDefault value\: 2\n    connectionsMaxTotal - The maximum limit of connections in total. The default will create no more than 20 concurrent connections in total.\nDefault value\: 20\n    followRedirects - Specifies whether the HTTP client automatically follows redirects.  Redirects explicitly prohibited by the HTTP specification as requiring user intervention will not be followed (redirects on POST and PUT requests that are converted to GET requests). If you specify a non-boolean value, the default value is used.\nDefault value\: true\nValid values\: true, false\n    headers - The list containing the headers to use for the request separated by new line (CRLF).The header name - value pair will be separated by "\:".\nFormat\: Conforming with HTTP standard for headers (RFC 2616).\nExamples\: Accept\:text/plain\n    destinationFile - The absolute path of a file on disk where to save the entity returned by the response. 'returnResult' will no longer be populated with the entity if this is specified. You should not use this for method\=HEAD or OPTIONS.\tExample\: C\:\\temp\\destinationFile.txt\n    responseCharacterSet - The character encoding to be used for the HTTP response. If responseCharacterSet is empty, the charset from the 'Content-Type' HTTP response header will be used. If responseCharacterSet is empty and the charset from the HTTP response Content-Type header is empty, the default value will be used. You should not use this for method\=HEAD or OPTIONS.\nDefault value\: ISO-8859-1\n    queryParams - The list containing query parameters to append to the URL. The names and the values must not be URL encoded unless you specify "queryParamsAreURLEncoded"\=true because if they are encoded and "queryParamsAreURLEncoded"\=false they will get double encoded. The separator between name-value pairs is  "&". The query name will be separated from query value by "\=". Note that you need to URL encode at least "&" to "%26" and "\=" to "%3D" and set "queryParamsAreURLEncoded"\="true" if you leave the other special URL characters unencoded they will be encoded by the HTTP Client.\nExamples\: parameterName1\=parameterValue1&parameterName2\=parameterValue2;\n    queryParamsAreURLEncoded - Specifies whether to encode  (according to the url encoding standard) the queryParams. If you set "queryParamsAreURLEncoded"\=true and you have invalid characters in 'queryParams' they will get encoded anyway. If you specify a non-boolean value, the default value is used.\nDefault value\: false\nValid values\: true, false\n    queryParamsAreFormEncoded - Specifies whether to encode the queryParams in the the default format used by the apache http client library - form format. If this input is true then all characters will be encoded based on the queryParamsAreURLEncoded input.If queryParamsAreFormEncoded\=false all reserved chars are not encoded no matter of queryParamsAreURLEncoded input.The only exceptions are for space(' ')character which is encoded as %20 and + (plus) which is encoded as %20 and not encoded if queryParamsAreURLEncoded\=false. Check the "v2.0" folder description for more details.\nDefault value\: true. \nValid values\: true, false\nExample\: query\=test te%20@st will be encoded in query\=test%20te%20@st\n    method - The HTTP method used. This is a required input.\n\nOutputs\n    returnResult - This will contain the response entity (unless 'destinationFile' is specified). In case of an error this output will contain the error message.\n    exception - In case of success response, this result is empty. In case of failure response, this result contains the java stack trace of the runtime exception.\n    statusCode - The HTTP status code.\nFormat\: 1xx (Informational - Request received, continuing process), 2xx (Success - The action was successfully received, understood, and accepted), 3xx (Redirection - Further action must be taken in order to complete the request), 4xx (Client Error - The request contains bad syntax or cannot be fulfilled), 5xx Server Error - The server failed to fulfil an apparently valid request)\nExamples\: 200, 404\n    finalLocation - The final location after redirects.\nFormat\: URL\n    responseHeaders - The list containing the headers of the response message, separated by newline.\nFormat\: This is conforming with HTTP standard for headers (RFC 2616).\n    protocolVersion - The HTTP protocol version.\nExamples\: HTTP/1.1\n    reasonPhrase - The reason phrase from the origin HTTP response. This depends on the status code and are according to RFC 1945 and RFC 2048\nExamples\: (HTTP 1.0)\: OK, Created, Accepted, No Content, Moved Permanently, Moved Temporarily, Not Modified, Bad Request, Unauthorized, Forbidden, Not Found, Internal Server Error, Not Implemented, Bad Gateway, Service Unavailable\tValues (HTTP 1.1)\: Continue, Temporary Redirect, Method Not Allowed, Conflict, Precondition Failed, Request Too Long, Request-URI Too Long, Unsupported Media Type, Multiple Choices, See Other, Use Proxy, Payment Required, Not Acceptable, Proxy Authentication Required, Request Timeout, Switching Protocols, Non Authoritative Information, Reset Content, Partial Content, Gateway Timeout, Http Version Not Supported, Gone, Length Required, Requested Range Not Satisfiable, Expectation Failed\n    returnCode - The returnCode of the operation\: 0 for success, -1 for failure.\n\nResponses\n    success - The operation completed without a runtime exception. So it will go to success for any  http codes even those in the 400-599 range.\n    failure - A runtime exception occurred. This may be due to incorrectly formated inputs (authType, contentType, headers, method, proxy, queryParams, requestCharacterSet, responseCharacterSet, truststore, url), or failed ntlm or Kerberos authentication.\n\nNotes\nCheck the "v2.0" folder description for more help.\n</pre>\n
]]></descriptionCdata>
  <annotation></annotation>
  <name>extract_json_flow</name>
  <categories/>
  <inputs/>
  <possibleResponses>
    <opResponse id="4dd6e744-a9df-4162-8219-b0903212a10c">
      <annotation></annotation>
      <name>success</name>
      <isDefault>true</isDefault>
      <onFailure>false</onFailure>
      <type>RESOLVED</type>
      <matchRules/>
    </opResponse>
    <opResponse id="b902a260-5e6b-42b1-be6f-f50776b823e9">
      <annotation></annotation>
      <name>failure</name>
      <isDefault>false</isDefault>
      <onFailure>true</onFailure>
      <type>ERROR</type>
      <matchRules/>
    </opResponse>
  </possibleResponses>
  <availableResultExpressions/>
  <resultExpression id="4d9eeb87-6c6d-4f79-b673-b70b75e04e12">
    <annotation></annotation>
    <name>FailureMessage</name>
    <fieldName>FailureMessage</fieldName>
    <sourceType>RAWRESULT</sourceType>
    <filters/>
  </resultExpression>
  <iconSpec id="298cadb3-b5d2-46e3-972e-ac0532f48ba2">
    <baseIcon>flow.png</baseIcon>
    <basePath>System</basePath>
    <readOnly>false</readOnly>
    <layers/>
  </iconSpec>
  <callouts/>
  <checkPointFlow>true</checkPointFlow>
  <compatibleRuntimeContext>false</compatibleRuntimeContext>
  <historyCheckPointFlow>true</historyCheckPointFlow>
  <steps>
    <step id="555fee1f-fc11-408f-a286-ce5c6ad48ebc">
      <annotation>2c0fe744-665b-4017-b66c-a065c571db69.555fee1f-fc11-408f-a286-ce5c6ad48ebc.description</annotation>
      <name>Http Client Get</name>
      <bounds>
        <x>276.0</x>
        <y>182.0</y>
      </bounds>
      <layer>-1</layer>
      <hideInbound>false</hideInbound>
      <addResultToRunContext>false</addResultToRunContext>
      <isCriticalStep>false</isCriticalStep>
      <isNonBlocking>false</isNonBlocking>
      <isParallelStep>false</isParallelStep>
      <isSingleResponse>false</isSingleResponse>
      <recordInHistory>false</recordInHistory>
      <recordRawOutput>true</recordRawOutput>
      <recordPrimaryOutput>true</recordPrimaryOutput>
      <checkPointStep>true</checkPointStep>
      <historyCheckPointStep>true</historyCheckPointStep>
      <scriptResultStep>false</scriptResultStep>
      <userPrompt></userPrompt>
      <bindings>
        <staticBinding id="582a94ca-a714-4774-bafd-c638cf764351">
          <assignFromContext>false</assignFromContext>
          <assignToContext>false</assignToContext>
          <inputType>STRING</inputType>
          <isList>false</isList>
          <required>true</required>
          <isPersisted>true</isPersisted>
          <inputSymbol>url</inputSymbol>
          <listDelimiter>,</listDelimiter>
          <value>https://jsonplaceholder.typicode.com/posts</value>
          <record>false</record>
        </staticBinding>
        <staticBinding id="a3bd7ebe-c17e-4f04-91b4-30df7f4e5320">
          <annotation></annotation>
          <assignFromContext>false</assignFromContext>
          <assignToContext>false</assignToContext>
          <inputType>STRING</inputType>
          <isList>false</isList>
          <required>false</required>
          <isPersisted>true</isPersisted>
          <inputSymbol>authType</inputSymbol>
          <listDelimiter>,</listDelimiter>
          <value>Basic</value>
          <record>false</record>
        </staticBinding>
        <staticBinding id="4c5f7f89-1f55-41b1-b791-86d2c0ec794a">
          <annotation></annotation>
          <assignFromContext>false</assignFromContext>
          <assignToContext>false</assignToContext>
          <inputType>STRING</inputType>
          <isList>false</isList>
          <required>false</required>
          <isPersisted>true</isPersisted>
          <inputSymbol>username</inputSymbol>
          <listDelimiter>,</listDelimiter>
          <value>vinod100g</value>
          <record>false</record>
        </staticBinding>
        <staticBinding id="22e67c54-f26b-4496-b3e4-898bdea19c75">
          <annotation></annotation>
          <assignFromContext>false</assignFromContext>
          <assignToContext>false</assignToContext>
          <inputType>ENCRYPTED</inputType>
          <isList>false</isList>
          <required>false</required>
          <isPersisted>true</isPersisted>
          <inputSymbol>password</inputSymbol>
          <listDelimiter>,</listDelimiter>
          <value>{OBFUSCATED}FCg3ex59toCIim0W7jwENA==</value>
          <record>false</record>
        </staticBinding>
        <staticBinding id="0641afa7-8252-4f85-9fd2-ea0399cc2dd4">
          <annotation></annotation>
          <assignFromContext>false</assignFromContext>
          <assignToContext>false</assignToContext>
          <inputType>STRING</inputType>
          <isList>false</isList>
          <required>false</required>
          <isPersisted>true</isPersisted>
          <inputSymbol>preemptiveAuth</inputSymbol>
          <listDelimiter>,</listDelimiter>
          <value>true</value>
          <record>false</record>
        </staticBinding>
        <staticBinding id="1fca67df-45e9-4107-b071-b66b344f90ae">
          <annotation></annotation>
          <assignFromContext>false</assignFromContext>
          <assignToContext>false</assignToContext>
          <inputType>STRING</inputType>
          <isList>false</isList>
          <required>false</required>
          <isPersisted>true</isPersisted>
          <inputSymbol>proxyHost</inputSymbol>
          <listDelimiter>,</listDelimiter>
          <record>false</record>
        </staticBinding>
        <staticBinding id="b26ed918-3f53-4456-8641-f882494e9cef">
          <annotation></annotation>
          <assignFromContext>false</assignFromContext>
          <assignToContext>false</assignToContext>
          <inputType>STRING</inputType>
          <isList>false</isList>
          <required>false</required>
          <isPersisted>true</isPersisted>
          <inputSymbol>proxyPort</inputSymbol>
          <listDelimiter>,</listDelimiter>
          <value>8080</value>
          <record>false</record>
        </staticBinding>
        <staticBinding id="988b49f1-940e-4f89-910b-d800b6be1f3f">
          <annotation></annotation>
          <assignFromContext>false</assignFromContext>
          <assignToContext>false</assignToContext>
          <inputType>STRING</inputType>
          <isList>false</isList>
          <required>false</required>
          <isPersisted>true</isPersisted>
          <inputSymbol>proxyUsername</inputSymbol>
          <listDelimiter>,</listDelimiter>
          <record>false</record>
        </staticBinding>
        <staticBinding id="bcd29bdd-2db1-469a-b3cf-107a47e063db">
          <annotation></annotation>
          <assignFromContext>false</assignFromContext>
          <assignToContext>false</assignToContext>
          <inputType>ENCRYPTED</inputType>
          <isList>false</isList>
          <required>false</required>
          <isPersisted>true</isPersisted>
          <inputSymbol>proxyPassword</inputSymbol>
          <listDelimiter>,</listDelimiter>
          <record>false</record>
        </staticBinding>
        <staticBinding id="a6abba5b-56f4-401d-af14-28a3418ff8d4">
          <annotation></annotation>
          <assignFromContext>false</assignFromContext>
          <assignToContext>false</assignToContext>
          <inputType>STRING</inputType>
          <isList>false</isList>
          <required>false</required>
          <isPersisted>true</isPersisted>
          <inputSymbol>tlsVersion</inputSymbol>
          <listDelimiter>,</listDelimiter>
          <value>TLSv1.2</value>
          <record>false</record>
        </staticBinding>
        <staticBinding id="1cedd42b-2856-4c72-8f83-b7172468f4e8">
          <annotation></annotation>
          <assignFromContext>false</assignFromContext>
          <assignToContext>false</assignToContext>
          <inputType>STRING</inputType>
          <isList>false</isList>
          <required>false</required>
          <isPersisted>true</isPersisted>
          <inputSymbol>allowedCyphers</inputSymbol>
          <listDelimiter>,</listDelimiter>
          <value>TLS_DHE_RSA_WITH_AES_256_GCM_SHA384,TLS_ECDHE_RSA_WITH_AES_128_GCM_SHA256,TLS_DHE_RSA_WITH_AES_256_CBC_SHA256,TLS_DHE_RSA_WITH_AES_128_CBC_SHA256,TLS_ECDHE_RSA_WITH_AES_256_CBC_SHA384,TLS_ECDHE_RSA_WITH_AES_128_CBC_SHA256,TLS_ECDHE_ECDSA_WITH_AES_128_CBC_SHA256,TLS_ECDHE_ECDSA_WITH_AES_128_GCM_SHA256,TLS_RSA_WITH_AES_256_GCM_SHA384,TLS_RSA_WITH_AES_256_CBC_SHA256,TLS_RSA_WITH_AES_128_CBC_SHA256</value>
          <record>false</record>
        </staticBinding>
        <staticBinding id="04c4afce-606d-4759-b268-f0a8710177eb">
          <annotation></annotation>
          <assignFromContext>false</assignFromContext>
          <assignToContext>false</assignToContext>
          <inputType>STRING</inputType>
          <isList>false</isList>
          <required>false</required>
          <isPersisted>true</isPersisted>
          <inputSymbol>trustAllRoots</inputSymbol>
          <listDelimiter>,</listDelimiter>
          <value>false</value>
          <record>false</record>
        </staticBinding>
        <staticBinding id="a7650d8f-f3a0-4d1b-a1bc-59b72f68fafa">
          <annotation></annotation>
          <assignFromContext>false</assignFromContext>
          <assignToContext>false</assignToContext>
          <inputType>STRING</inputType>
          <isList>false</isList>
          <required>false</required>
          <isPersisted>true</isPersisted>
          <inputSymbol>x509HostnameVerifier</inputSymbol>
          <listDelimiter>,</listDelimiter>
          <value>strict</value>
          <record>false</record>
        </staticBinding>
        <staticBinding id="fd03d5b6-3073-4471-a52d-df2f4a548a7b">
          <annotation></annotation>
          <assignFromContext>false</assignFromContext>
          <assignToContext>false</assignToContext>
          <inputType>STRING</inputType>
          <isList>false</isList>
          <required>false</required>
          <isPersisted>true</isPersisted>
          <inputSymbol>trustKeystore</inputSymbol>
          <listDelimiter>,</listDelimiter>
          <record>false</record>
        </staticBinding>
        <staticBinding id="a0cb557a-34b1-42de-95c2-0f8deec860cd">
          <annotation></annotation>
          <assignFromContext>false</assignFromContext>
          <assignToContext>false</assignToContext>
          <inputType>ENCRYPTED</inputType>
          <isList>false</isList>
          <required>false</required>
          <isPersisted>true</isPersisted>
          <inputSymbol>trustPassword</inputSymbol>
          <listDelimiter>,</listDelimiter>
          <value>changeit</value>
          <record>false</record>
        </staticBinding>
        <staticBinding id="4b169670-2603-41ca-bc85-d8255d800ed4">
          <annotation></annotation>
          <assignFromContext>false</assignFromContext>
          <assignToContext>false</assignToContext>
          <inputType>STRING</inputType>
          <isList>false</isList>
          <required>false</required>
          <isPersisted>true</isPersisted>
          <inputSymbol>keystore</inputSymbol>
          <listDelimiter>,</listDelimiter>
          <record>false</record>
        </staticBinding>
        <staticBinding id="19d333ac-d75f-46de-853d-013190c0063e">
          <annotation></annotation>
          <assignFromContext>false</assignFromContext>
          <assignToContext>false</assignToContext>
          <inputType>ENCRYPTED</inputType>
          <isList>false</isList>
          <required>false</required>
          <isPersisted>true</isPersisted>
          <inputSymbol>keystorePassword</inputSymbol>
          <listDelimiter>,</listDelimiter>
          <value>changeit</value>
          <record>false</record>
        </staticBinding>
        <staticBinding id="1c451b4f-3165-4719-a21a-cace25a48736">
          <annotation></annotation>
          <assignFromContext>false</assignFromContext>
          <assignToContext>false</assignToContext>
          <inputType>STRING</inputType>
          <isList>false</isList>
          <required>false</required>
          <isPersisted>true</isPersisted>
          <inputSymbol>connectTimeout</inputSymbol>
          <listDelimiter>,</listDelimiter>
          <value>0</value>
          <record>false</record>
        </staticBinding>
        <staticBinding id="eb9b2a64-b6c7-434f-94de-c64edf0df9f3">
          <annotation></annotation>
          <assignFromContext>false</assignFromContext>
          <assignToContext>false</assignToContext>
          <inputType>STRING</inputType>
          <isList>false</isList>
          <required>false</required>
          <isPersisted>true</isPersisted>
          <inputSymbol>socketTimeout</inputSymbol>
          <listDelimiter>,</listDelimiter>
          <value>0</value>
          <record>false</record>
        </staticBinding>
        <staticBinding id="784c3483-4bd0-4462-99c2-f1b05f339574">
          <annotation></annotation>
          <assignFromContext>false</assignFromContext>
          <assignToContext>false</assignToContext>
          <inputType>STRING</inputType>
          <isList>false</isList>
          <required>false</required>
          <isPersisted>true</isPersisted>
          <inputSymbol>useCookies</inputSymbol>
          <listDelimiter>,</listDelimiter>
          <value>true</value>
          <record>false</record>
        </staticBinding>
        <staticBinding id="459b45da-5427-4750-b90e-19bd62992301">
          <annotation></annotation>
          <assignFromContext>false</assignFromContext>
          <assignToContext>false</assignToContext>
          <inputType>STRING</inputType>
          <isList>false</isList>
          <required>false</required>
          <isPersisted>true</isPersisted>
          <inputSymbol>keepAlive</inputSymbol>
          <listDelimiter>,</listDelimiter>
          <value>true</value>
          <record>false</record>
        </staticBinding>
        <staticBinding id="17d22aa6-32d2-44c0-9adc-deceaeec5b99">
          <annotation></annotation>
          <assignFromContext>false</assignFromContext>
          <assignToContext>false</assignToContext>
          <inputType>STRING</inputType>
          <isList>false</isList>
          <required>false</required>
          <isPersisted>true</isPersisted>
          <inputSymbol>connectionsMaxPerRoute</inputSymbol>
          <listDelimiter>,</listDelimiter>
          <value>2</value>
          <record>false</record>
        </staticBinding>
        <staticBinding id="e31a157f-9ebb-45f1-a167-99524b1b8092">
          <annotation></annotation>
          <assignFromContext>false</assignFromContext>
          <assignToContext>false</assignToContext>