<?xml version="1.0" encoding="UTF-8"?>
<flow id="abe24bb1-1e11-4038-841d-08e8d877baf6">
  <descriptionCdata><![CDATA[abe24bb1-1e11-4038-841d-08e8d877baf6.675e8dac-a1a6-4e40-9b8b-a90ac6dae66d.description=<pre>\nGets a list of files and folders in a directory.\n\nInput Parameters\:\nsource - The directory to check.\ndelimiter - A delimiter to put between files and folders in the directory.\nuser - Username to use for thread impersonation on the RAS host when reading.\npassword - Password for the user.\n\nReturns\:\nThe children of the path.\n\nExtra Results\:\ncount - The number of children.\n\nResponses\:\nfailure - The operation failed. The path probably could not be found, or was a file.\nsuccess - The operation succeeded.\n</pre>\n
abe24bb1-1e11-4038-841d-08e8d877baf6.6ab3d577-de73-4a24-b354-104d3d527efb.description=<pre>Moves a file or a folder to a new location.\n\nInputs\:\n    source - The path for the file or folder that will be moved.\n    destination - The location where the file or folder will be moved.\n    user - Username to use for thread impersonation on the RAS host for this operation.\n    password - Password for the user.\n    overwrite - If set to "false" the operation will fail if "destination" exists.\nValid values\: true, false\nDefault value\: false\n\nResponses\:\n    failure - The move failed.\n    success - The move succeeded.\n\nNotes\:\n1. On Windows OS the file path is case insensitive so paths that are different only by letter's case are treated as being the same.\n</pre>
abe24bb1-1e11-4038-841d-08e8d877baf6.7c009dca-2f44-4465-b513-26ad33507aac.description=<pre>\nCreates a directory\n\nInputs\:\npath - The path of the directory to create.\nuser - The username to use for thread impersonation on the RAS host when creating directory.\npassword - The password for user.\n\nResponses\:\nsuccess - The directory created was successfully created.\nfailure - Failed to create directory.\n</pre>\n
abe24bb1-1e11-4038-841d-08e8d877baf6.85dd54e2-e333-4ca0-b042-59a779485be0.description=<pre>\nThis operation does not do anything. It can be used to filter flow variables by defining them as inputs and filtering them in the Results tab.\n\nInputs\:\n    field1 \u2013 An optional input that can be used for filtering flow variables.\n    field2 \u2013 An optional input that can be used for filtering flow variables.\n    field3 \u2013 An optional input that can be used for filtering flow variables.\n    field4 \u2013 An optional input that can be used for filtering flow variables.\n\nResults\:\n    returnResult - This is the primary output. It contains the value of  "field1" as it was specified at input or when filtered. \n\nResponses\:\n    success - The operation completed as stated in the description.\n</pre>
abe24bb1-1e11-4038-841d-08e8d877baf6.887b9454-66d8-4b8f-87fa-eaf0b5c6fcf5.description=<pre>Checks to see if a path points to a directory.\n\nInput Parameters\:\nsource - The path to check.\nuser - Username to use for thread impersonation on the RAS host when reading.\npassword - Password for the user.\n\nResponses\:\nfailure - The operation failed. The path does not point to a directory.\nsuccess - The operation succeeded.\n</pre>\n
abe24bb1-1e11-4038-841d-08e8d877baf6.b2a8c997-94d4-40f8-86dc-080664e3c109.description=<pre>Checks to see if a path is an existing file or folder.\n\nInputs\:\nsource - The full path path to check. This can be either a local path such as c\:\\test.txt, or a unc path such as \\\\testhost\\test.txt. This path is relative to the Windows RAS host that the operation is running on.\nuser - Username to use for thread impersonation on the RAS host when reading.\npassword - Password for username.\n\nResponses\:\nfailure - The operation failed. The path does not exist.\nsuccess - The operation succeeded.\n</pre>\n
abe24bb1-1e11-4038-841d-08e8d877baf6.d5eb8558-307e-4268-a4e6-7212d21c57cc.description=<pre>This operation iterates through a list of values. It is not recommended to modify the value of the "list" and "separator" inputs during the iteration process.\n\nInputs\:\n    list - The list to iterate through.\n    separator - A delimiter separating the list elements. This may be single character, multi-characters or special characters. \nDefault value\: \u2018,\u2019 (comma).\nExamples\: In case the list is\:\n"One \\n simple %\nlist to test the operation."\n1. If the separator is "\\n" then the elements returned per iteration by this operation are\:\n   1st iteration\: One\n   2nd iteration\: simple %\n   3rd iteration\: list to test the operation.\n2. If the separator is "%" then the elements returned per iteration by this operation are\:\n   1st iteration\: One \\n simple\n   2nd iteration\: list to test the operation.\n3. If the separator is "test" then the elements returned per iteration by this operation are\:\n   1st iteration\: One \\n simple %\n                      list to \n   2nd iteration\: the operation.\n\nResults\:\n    resultString - The current list element (if the response is "has more").\n\nResponses\:\n    has more - Another value was found in the list and it has been returned.\n    no more - The iterator has gone through the entire list. This response is returned once per list iteration.  A subsequent call to the List iterator operation restarts the list iteration process.\n    failure - The operation completed unsuccessfully.\n\nNote\:\n   The position of the iterator in the list is tracked by each step's unique identifier. Therefore, you can simultaneously iterate through the same list from multiple steps.\n</pre>
]]></descriptionCdata>
  <annotation></annotation>
  <name>file_separator_flow</name>
  <categories/>
  <inputs/>
  <possibleResponses>
    <opResponse id="36cedcf0-8e43-4a3b-bb38-db38cd00fdbc">
      <annotation></annotation>
      <name>success</name>
      <isDefault>true</isDefault>
      <onFailure>false</onFailure>
      <type>RESOLVED</type>
      <matchRules/>
    </opResponse>
    <opResponse id="baa3667f-9403-48d4-b6b1-26e9eec174cf">
      <annotation></annotation>
      <name>failure</name>
      <isDefault>false</isDefault>
      <onFailure>true</onFailure>
      <type>ERROR</type>
      <matchRules/>
    </opResponse>
  </possibleResponses>
  <availableResultExpressions/>
  <resultExpression id="ba11a3d5-2639-440d-b70e-5f9189e8708f">
    <annotation></annotation>
    <name>FailureMessage</name>
    <fieldName>FailureMessage</fieldName>
    <sourceType>RAWRESULT</sourceType>
    <filters/>
  </resultExpression>
  <iconSpec id="c2e9f8bc-c971-4d61-b9fa-84e1d7ddc647">
    <baseIcon>flow.png</baseIcon>
    <basePath>System</basePath>
    <readOnly>false</readOnly>
    <layers/>
  </iconSpec>
  <callouts/>
  <checkPointFlow>true</checkPointFlow>
  <compatibleRuntimeContext>false</compatibleRuntimeContext>
  <historyCheckPointFlow>true</historyCheckPointFlow>
  <steps>
    <step id="675e8dac-a1a6-4e40-9b8b-a90ac6dae66d">
      <annotation>abe24bb1-1e11-4038-841d-08e8d877baf6.675e8dac-a1a6-4e40-9b8b-a90ac6dae66d.description</annotation>
      <name>FS Get Children</name>
      <bounds>
        <x>115.0</x>
        <y>85.0</y>
      </bounds>
      <layer>-1</layer>
      <hideInbound>false</hideInbound>
      <addResultToRunContext>false</addResultToRunContext>
      <isCriticalStep>false</isCriticalStep>
      <isNonBlocking>false</isNonBlocking>
      <isParallelStep>false</isParallelStep>
      <isSingleResponse>false</isSingleResponse>
      <recordInHistory>false</recordInHistory>
      <recordRawOutput>true</recordRawOutput>
      <recordPrimaryOutput>true</recordPrimaryOutput>
      <checkPointStep>true</checkPointStep>
      <historyCheckPointStep>true</historyCheckPointStep>
      <scriptResultStep>false</scriptResultStep>
      <userPrompt></userPrompt>
      <bindings>
        <staticBinding id="3aef6b86-63cf-4ac9-af49-559a41ac63c9">
          <annotation></annotation>
          <toContextKey></toContextKey>
          <fromContextKey></fromContextKey>
          <assignFromContext>false</assignFromContext>
          <assignToContext>false</assignToContext>
          <inputType>STRING</inputType>
          <isList>false</isList>
          <required>false</required>
          <isPersisted>true</isPersisted>
          <inputSymbol>user</inputSymbol>
          <listDelimiter>,</listDelimiter>
          <record>false</record>
        </staticBinding>
        <staticBinding id="1fa6a625-6eb4-40d0-a748-79db90e6a9cc">
          <annotation></annotation>
          <toContextKey></toContextKey>
          <fromContextKey></fromContextKey>
          <assignFromContext>false</assignFromContext>
          <assignToContext>false</assignToContext>
          <inputType>ENCRYPTED</inputType>
          <isList>false</isList>
          <required>false</required>
          <isPersisted>true</isPersisted>
          <inputSymbol>password</inputSymbol>
          <listDelimiter>,</listDelimiter>
          <record>false</record>
        </staticBinding>
        <staticBinding id="f35dea67-9a33-4975-830a-2039930e42e8">
          <annotation></annotation>
          <toContextKey></toContextKey>
          <fromContextKey></fromContextKey>
          <assignFromContext>false</assignFromContext>
          <assignToContext>false</assignToContext>
          <inputType>STRING</inputType>
          <isList>false</isList>
          <required>true</required>
          <isPersisted>true</isPersisted>
          <inputSymbol>source</inputSymbol>
          <listDelimiter>,</listDelimiter>
          <value>C:\Users\VUttaravalli\sou_folder</value>
          <record>false</record>
        </staticBinding>
        <staticBinding id="af36192c-0b49-46b5-8189-c7e56891cfb5">
          <annotation></annotation>
          <toContextKey></toContextKey>
          <fromContextKey></fromContextKey>
          <assignFromContext>false</assignFromContext>
          <assignToContext>false</assignToContext>
          <inputType>STRING</inputType>
          <isList>false</isList>
          <required>true</required>
          <isPersisted>true</isPersisted>
          <inputSymbol>delimiter</inputSymbol>
          <listDelimiter>,</listDelimiter>
          <value>,</value>
          <record>false</record>
        </staticBinding>
      </bindings>
      <transitions>
        <transition id="26b1386f-1509-4c0d-92a3-1154feaab4ea">
          <annotation></annotation>
          <name>failure</name>
          <command>NEXT</command>
          <linkMode>false</linkMode>
          <responseSymbol>failure</responseSymbol>
          <shouldHandoff>false</shouldHandoff>
          <transitionValue>0.0</transitionValue>
          <destination>
            <refId>944f98a9-167b-46c1-9cee-4aac40ffbcd9</refId>
          </destination>
          <source>
            <refId>675e8dac-a1a6-4e40-9b8b-a90ac6dae66d</refId>
          </source>
          <positions>
            <point>
              <x>609.0</x>
              <y>217.0</y>
            </point>
            <point>
              <x>616.0</x>
              <y>336.0</y>
            </point>
          </positions>
          <labelPosition>
            <x>333.0</x>
            <y>0.0</y>
          </labelPosition>
        </transition>
        <transition id="8735e2bc-d8e4-4382-b99d-ae552063822d">
          <annotation></annotation>
          <name>success</name>
          <command>NEXT</command>
          <linkMode>false</linkMode>
          <responseSymbol>success</responseSymbol>
          <shouldHandoff>false</shouldHandoff>
          <transitionValue>0.0</transitionValue>
          <destination>
            <refId>d5eb8558-307e-4268-a4e6-7212d21c57cc</refId>
          </destination>
          <source>
            <refId>675e8dac-a1a6-4e40-9b8b-a90ac6dae66d</refId>
          </source>
          <positions>
            <point>
              <x>368.0</x>
              <y>186.0</y>
            </point>
            <point>
              <x>573.0</x>
              <y>268.0</y>
            </point>
          </positions>
          <labelPosition>
            <x>333.0</x>
            <y>0.0</y>
          </labelPosition>
        </transition>
      </transitions>
      <properties/>
      <opRef>
        <refId>8afc4bc4-34af-4e44-881f-3563f0cb7580</refId>
      </opRef>
      <assignments>
        <flowVariableAssignment id="5fcf930a-a5ed-4ca4-a838-05177e89c019">
          <annotation></annotation>
          <name>assignment</name>
          <action>OVERWRITE</action>
          <assignmentTargetType>FLOW_VARIABLE</assignmentTargetType>
          <contextKey>source_path</contextKey>
          <expression id="7f5d0b23-6304-45a2-b08f-5b91776fa067">
            <annotation></annotation>
            <name>Input: source</name>
            <fieldName>source</fieldName>
            <sourceType>INPUT</sourceType>
            <filters/>
          </expression>
        </flowVariableAssignment>
        <flowVariableAssignment id="9b992cb7-63b7-46f3-846d-2c756408b83d">
          <annotation></annotation>
          <name>assignment</name>
          <action>OVERWRITE</action>
          <assignmentTargetType>FLOW_VARIABLE</assignmentTargetType>
          <contextKey>files</contextKey>
          <expression id="be6c1ef6-90d5-4a12-8c0c-2064a955f839">
            <annotation></annotation>
            <name>Result Field: returnResult</name>
            <fieldName>returnResult</fieldName>
            <sourceType>RAWRESULT</sourceType>
            <filters>
              <scriptletFilter id="59441060-5bad-4b58-947e-f5723a1d087e">
                <annotation></annotation>
                <name>Scriptlet</name>
                <scriptlet id="681796dd-e63d-4285-b093-ece1c52e305b">
                  <annotation></annotation>
                  <name>default</name>
                  <script>if (scriptletInput !== null) {
  scriptletResult = scriptletInput.split(&quot;,&quot;)
}</script>
                  <type>RHINO</type>
                </scriptlet>
              </scriptletFilter>
            </filters>
          </expression>
        </flowVariableAssignment>
      </assignments>
      <throttleSize>0</throttleSize>
    </step>
    <returnStep id="3497a986-20d6-4480-af14-08c1fceee05e">
      <annotation></annotation>
      <name>Resolved : success</name>
      <bounds>
        <x>728.0</x>
        <y>100.0</y>
      </bounds>
      <layer>-1</layer>
      <hideInbound>false</hideInbound>
      <addResultToRunContext>false</addResultToRunContext>
      <isCriticalStep>false</isCriticalStep>
      <isNonBlocking>false</isNonBlocking>
      <isParallelStep>false</isParallelStep>
      <isSingleResponse>false</isSingleResponse>
      <recordInHistory>false</recordInHistory>
      <recordRawOutput>true</recordRawOutput>
      <recordPrimaryOutput>true</recordPrimaryOutput>
      <checkPointStep>true</checkPointStep>
      <historyCheckPointStep>true</historyCheckPointStep>
      <scriptResultStep>false</scriptResultStep>
      <userPrompt></userPrompt>
      <bindings/>
      <transitions>
        <transition id="bd6e95e9-4db5-4046-821c-7b5ff63b6028">
          <annotation></annotation>
          <name>return</name>
          <command>NEXT</command>
          <linkMode>false</linkMode>
          <responseSymbol>success</responseSymbol>
          <shouldHandoff>false</shouldHandoff>
          <transitionValue>0.0</transitionValue>
          <destination>
            <refId>3497a986-20d6-4480-af14-08c1fceee05e</refId>
          </destination>
          <source>
            <refId>3497a986-20d6-4480-af14-08c1fceee05e</refId>
          </source>
          <positions/>
        </transition>
      </transitions>
      <properties/>
      <returnStepType>RESOLVED</returnStepType>
      <assignments/>
    </returnStep>
    <returnStep id="944f98a9-167b-46c1-9cee-4aac40ffbcd9">
      <annotation></annotation>
      <name>Error : failure</name>
      <bounds>
        <x>209.0</x>
        <y>633.0</y>
      </bounds>
      <layer>-1</layer>
      <hideInbound>false</hideInbound>
      <addResultToRunContext>false</addResultToRunContext>
      <isCriticalStep>false</isCriticalStep>
      <isNonBlocking>false</isNonBlocking>
      <isParallelStep>false</isParallelStep>
      <isSingleResponse>false</isSingleResponse>
      <recordInHistory>false</recordInHistory>
      <recordRawOutput>true</recordRawOutput>
      <recordPrimaryOutput>true</recordPrimaryOutput>
      <checkPointStep>true</checkPointStep>
      <historyCheckPointStep>true</historyCheckPointStep>
      <scriptResultStep>false</scriptResultStep>
      <userPrompt></userPrompt>
      <bindings/>
      <transitions>
        <transition id="9ae4bef7-7017-4c11-9efb-5631cbc21354">
          <annotation></annotation>
          <name>return</name>
          <command>NEXT</command>
          <linkMode>false</linkMode>
          <responseSymbol>failure</responseSymbol>
          <shouldHandoff>false</shouldHandoff>
          <transitionValue>0.0</transitionValue>
          <destination>
            <refId>944f98a9-167b-46c1-9cee-4aac40ffbcd9</refId>
          </destination>
          <source>
            <refId>944f98a9-167b-46c1-9cee-4aac40ffbcd9</refId>
          </source>
          <positions/>
        </transition>
      </transitions>
      <properties/>
      <returnStepType>ERROR</returnStepType>
      <assignments/>
    </returnStep>
    <step id="d5eb8558-307e-4268-a4e6-7212d21c57cc">
      <annotation>abe24bb1-1e11-4038-841d-08e8d877baf6.d5eb8558-307e-4268-a4e6-7212d21c57cc.description</annotation>
      <name>List Iterator</name>
      <bounds>
        <x>298.0</x>
        <y>92.0</y>
      </bounds>
      <layer>-1</layer>
      <hideInbound>false</hideInbound>
      <addResultToRunContext>false</addResultToRunContext>
      <isCriticalStep>false</isCriticalStep>
      <isNonBlocking>false</isNonBlocking>
      <isParallelStep>false</isParallelStep>
      <isSingleResponse>false</isSingleResponse>
      <recordInHistory>false</recordInHistory>
      <recordRawOutput>true</recordRawOutput>
      <recordPrimaryOutput>true</recordPrimaryOutput>
      <checkPointStep>true</checkPointStep>
      <historyCheckPointStep>true</historyCheckPointStep>
      <scriptResultStep>false</scriptResultStep>
      <userPrompt></userPrompt>
      <bindings>
        <staticBinding id="73b40510-d730-4a5d-b6bc-fcfae0878b2c">
          <annotation></annotation>
          <fromContextKey>files</fromContextKey>
          <assignFromContext>true</assignFromContext>
          <assignToContext>false</assignToContext>
          <inputType>STRING</inputType>
          <isList>false</isList>
          <required>true</required>
          <isPersisted>true</isPersisted>
          <inputSymbol>list</inputSymbol>
          <listDelimiter>,</listDelimiter>
          <value></value>
          <record>false</record>
        </staticBinding>
        <staticBinding id="c8a79b5a-4d3e-46d1-a46e-4e30d19e4259">
          <annotation></annotation>
          <assignFromContext>false</assignFromContext>
          <assignToContext>false</assignToContext>
          <inputType>STRING</inputType>
          <isList>false</isList>
          <required>true</required>
          <isPersisted>true</isPersisted>
          <inputSymbol>separator</inputSymbol>
          <listDelimiter>,</listDelimiter>
          <value>,</value>
          <record>false</record>
        </staticBinding>
      </bindings>
      <transitions>
        <transition id="061460cc-23e8-4e7b-bb50-3e6d7541e522">
          <annotation></annotation>
          <name>failure</name>
          <command>NEXT</command>
          <linkMode>false</linkMode>
          <responseSymbol>failure</responseSymbol>
          <shouldHandoff>false</shouldHandoff>
          <transitionValue>0.0</transitionValue>
          <destination>
            <refId>944f98a9-167b-46c1-9cee-4aac40ffbcd9</refId>
          </destination>
          <source>
            <refId>d5eb8558-307e-4268-a4e6-7212d21c57cc</refId>
          </source>
          <positions>
            <point>
              <x>573.0</x>
              <y>268.0</y>
            </point>
            <point>
              <x>366.0</x>
              <y>369.0</y>
            </point>
          </positions>
          <labelPosition>
            <x>333.0</x>
            <y>0.0</y>
          </labelPosition>
        </transition>
        <transition id="190128d7-9724-49ec-b1b9-11c9bb886654">
          <annotation></annotation>
          <name>no more</name>
          <command>NEXT</command>
          <linkMode>false</linkMode>
          <responseSymbol>no more</responseSymbol>
          <shouldHandoff>false</shouldHandoff>
          <transitionValue>0.0</transitionValue>
          <destination>
            <refId>3497a986-20d6-4480-af14-08c1fceee05e</refId>
          </destination>
          <source>
            <refId>d5eb8558-307e-4268-a4e6-7212d21c57cc</refId>
          </source>
          <positions>
            <point>
              <x>573.0</x>
              <y>268.0</y>
            </point>
            <point>
              <x>778.0</x>
              <y>134.0</y>
            </point>
          </positions>
          <labelPosition>
            <x>333.0</x>
            <y>0.0</y>
          </labelPosition>
        </transition>
        <transition id="6b318b60-f97e-4dbc-93a3-eaaa940af6b4">
          <annotation></annotation>
          <name>has more</name>
          <command>NEXT</command>
          <linkMode>false</linkMode>
          <responseSymbol>has more</responseSymbol>
          <shouldHandoff>false</shouldHandoff>
          <transitionValue>0.0</transitionValue>
          <destination>
            <refId>887b9454-66d8-4b8f-87fa-eaf0b5c6fcf5</refId>
          </destination>
          <source>
            <refId>d5eb8558-307e-4268-a4e6-7212d21c57cc</refId>
          </source>
          <positions>
            <point>
              <x>348.0</x>
              <y>126.0</y>
            </point>
            <point>
              <x>405.0</x>
              <y>354.0</y>
            </point>
          </positions>
          <labelPosition>
            <x>333.0</x>
            <y>0.0</y>
          </labelPosition>
        </transition>
      </transitions>
      <properties/>
      <opRef>
        <refId>cd75ca75-e64e-4b1e-9fe9-8dbc76f03865</refId>
      </opRef>
      <assignments>
        <flowVariableAssignment id="488e1953-82d9-4e67-b06e-f8b6a494af9b">
          <annotation></annotation>
          <name>assignment</name>
          <action>OVERWRITE</action>
          <assignmentTargetType>FLOW_VARIABLE</assignmentTargetType>
          <contextKey>extension</contextKey>
          <expression id="a09db4e3-fa02-41af-8ce9-68651978c4d1">
            <annotation></annotation>
            <name>Result Field: resultString</name>
            <fieldName>resultString</fieldName>
            <sourceType>RAWRESULT</sourceType>
            <filters>
              <scriptletFilter id="4b726227-89ec-47af-a6de-6220d60932ad">
                <annotation></annotation>
                <name>Scriptlet</name>
                <scriptlet id="cfc05c2a-1f2e-4785-94c6-75a158e69dad">
                  <annotation></annotation>
                  <name>default</name>
                  <script>if (scriptletInput !== null) {
  scriptletResult = scriptletInput.split(&quot;.&quot;)[1]
}</script>
                  <type>RHINO</type>
                </scriptlet>
              </scriptletFilter>
            </filters>
          </expression>
        </flowVariableAssignment>
        <flowVariableAssignment id="c213b828-c52a-4b5e-8235-3f7c0a68e9d1">
          <annotation></annotation>
          <name>assignment</name>
          <action>OVERWRITE</action>
          <assignmentTargetType>FLOW_VARIABLE</assignmentTargetType>
          <contextKey>item</contextKey>
          <expression id="0b71bc68-a2cf-4a0c-ad85-42848be9274d">
            <annotation></annotation>
            <name>Result Field: resultString</name>
            <fieldName>resultString</fieldName>
            <sourceType>RAWRESULT</sourceType>
            <filters/>
          </expression>
        </flowVariableAssignment>
      </assignments>
      <throttleSize>0</throttleSize>
    </step>
    <step id="6ab3d577-de73-4a24-b354-104d3d527efb">
      <annotation>abe24bb1-1e11-4038-841d-08e8d877baf6.6ab3d577-de73-4a24-b354-104d3d527efb.description</annotation>
      <name>FS Move</name>
      <bounds>
        <x>796.0</x>
        <y>361.0</y>
      </bounds>
      <layer>-1</layer>
      <hideInbound>false</hideInbound>
      <addResultToRunContext>false</addResultToRunContext>
      <isCriticalStep>false</isCriticalStep>
      <isNonBlocking>false</isNonBlocking>
      <isParallelStep>false</isParallelStep>
      <isSingleResponse>false</isSingleResponse>
      <recordInHistory>false</recordInHistory>
      <recordRawOutput>true</recordRawOutput>
      <recordPrimaryOutput>true</recordPrimaryOutput>
      <checkPointStep>true</checkPointStep>
      <historyCheckPointStep>true</historyCheckPointStep>
      <scriptResultStep>false</scriptResultStep>
      <userPrompt></userPrompt>
      <bindings>
        <staticBinding id="2b1fcb7b-c86b-40e3-9695-596f0fac9328">
          <annotation></annotation>
          <toContextKey></toContextKey>
          <fromContextKey>destPath</fromContextKey>
          <assignFromContext>true</assignFromContext>
          <assignToContext>false</assignToContext>
          <inputType>STRING</inputType>
          <isList>false</isList>
          <required>true</required>
          <isPersisted>true</isPersisted>
          <inputSymbol>destination</inputSymbol>
          <listDelimiter>,</listDelimiter>
          <value></value>
          <record>false</record>
        </staticBinding>
        <staticBinding id="21190326-b1c1-425d-bf7b-c125271bf204">
          <annotation></annotation>
          <toContextKey></toContextKey>
          <fromContextKey>item</fromContextKey>
          <assignFromContext>true</assignFromContext>
          <assignToContext>false</assignToContext>
          <inputType>STRING</inputType>
          <isList>false</isList>
          <required>true</required>
          <isPersisted>true</isPersisted>
          <inputSymbol>source</inputSymbol>
          <listDelimiter>,</listDelimiter>
          <value></value>
          <record>false</record>
        </staticBinding>
        <staticBinding id="fa6f4df1-85c2-4fab-bce6-142675301cf7">
          <annotation></annotation>
          <toContextKey></toContextKey>
          <fromContextKey></fromContextKey>
          <assignFromContext>false</assignFromContext>
          <assignToContext>false</assignToContext>
          <inputType>STRING</inputType>
          <isList>false</isList>
          <required>false</required>
          <isPersisted>true</isPersisted>
          <inputSymbol>user</inputSymbol>
          <listDelimiter>,</listDelimiter>
          <record>false</record>
        </staticBinding>
        <staticBinding id="8b21cc9a-d7a2-4b1a-8afe-8e3109ab141c">
          <annotation></annotation>
          <toContextKey></toContextKey>
          <fromContextKey></fromContextKey>
          <assignFromContext>false</assignFromContext>
          <assignToContext>false</assignToContext>
          <inputType>ENCRYPTED</inputType>
          <isList>false</isList>
          <required>false</required>
          <isPersisted>true</isPersisted>
          <inputSymbol>password</inputSymbol>
          <listDelimiter>,</listDelimiter>
          <record>false</record>
        </staticBinding>
        <staticBinding id="50472687-2725-4b91-bf9a-09b9b5892dee">
          <annotation></annotation>
          <toContextKey></toContextKey>
          <fromContextKey></fromContextKey>
          <assignFromContext>false</assignFromContext>
          <assignToContext>false</assignToContext>
          <inputType>STRING</inputType>
          <isList>false</isList>
          <required>false</required>
          <isPersisted>true</isPersisted>
          <inputSymbol>overwrite</inputSymbol>
          <listDelimiter>,</listDelimiter>
          <record>false</record>
        </staticBinding>
      </bindings>
      <transitions>
        <transition id="1668305e-4ac0-4d43-9a5d-b7172c58fe9e">
          <annotation></annotation>
          <name>failure</name>
          <command>NEXT</command>
          <linkMode>false</linkMode>
          <responseSymbol>failure</responseSymbol>
          <shouldHandoff>false</shouldHandoff>
          <transitionValue>0.0</transitionValue>
          <destination>
            <refId>944f98a9-167b-46c1-9cee-4aac40ffbcd9</refId>
          </destination>
          <source>
            <refId>6ab3d577-de73-4a24-b354-104d3d527efb</refId>
          </source>
          <positions>
            <point>
              <x>799.0</x>
              <y>590.0</y>
            </point>
            <point>
              <x>397.0</x>
              <y>618.0</y>
            </point>
          </positions>
          <labelPosition>
            <x>333.0</x>
            <y>0.0</y>
          </labelPosition>
        </transition>
        <transition id="8cc8c15d-3147-4a06-a4ab-8a4e242ba1bd">
          <annotation></annotation>
          <name>success</name>
          <command>NEXT</command>
          <linkMode>false</linkMode>
          <responseSymbol>success</responseSymbol>
          <shouldHandoff>false</shouldHandoff>
          <transitionValue>0.0</transitionValue>
          <destination>
            <refId>d5eb8558-307e-4268-a4e6-7212d21c57cc</refId>
          </destination>
          <source>
            <refId>6ab3d577-de73-4a24-b354-104d3d527efb</refId>
          </source>
          <positions>
            <point>
              <x>903.0</x>
              <y>514.0</y>
            </point>
            <point>
              <x>573.0</x>
              <y>268.0</y>
            </point>
          </positions>
          <labelPosition>
            <x>333.0</x>
            <y>0.0</y>