<?xml version="1.0" encoding="UTF-8"?>
<flow id="97ea3eeb-d2f8-4767-915c-235aff703cf8">
  <descriptionCdata><![CDATA[97ea3eeb-d2f8-4767-915c-235aff703cf8.9bcac842-3a6e-42f9-b20b-7fec14183d36.description=<pre>Copies a file or directory on the local machine. The "source" and "destination" inputs\u2019 values should be paths on the local machine.\n\nInputs\:\n    source - The file or directory to copy.\n    destination - The location to copy the file or directory to. If the destination does not exist it will be created.\n    removeSource - Specifies whether the source should be removed if the copy operation is successful.\nValid values\: true, false\nDefault value\: false\n    user - Username to use for thread impersonation on the RAS/Worker host during this operation.\n    password - The password for the user.\n    overwrite - If set to "true" the "destination" file will be overwritten. If set to "false" and the "destination" file exists the operation will fail. This input is considered always "true" when the "source" input indicates to a folder.\nValid values\: true, false\nDefault value\: false\n\nResponses\:\n    success - Was able to copy file/directory.\n    failure - Unable to copy file/directory.\n\nNote\:\n1. This operation can be used for copying files or folders on the local machine. For copying files between different machines, over the network, "FS Copy Inter Machines" operation should be used.\n2. The "user" and "password" inputs are used for local impersonation and are useful when accessing files belonging to different users on the local machine.\n3. If the "source" input indicates to a file and the "destination" input indicates to a folder, the file will be copied to that folder. If the "destination" specifies a file, the content from the source file will be copied to the destination (if the destination file does not exist it will be created, if it exists the operation will take into account the "overwrite" input).\n4. If the "destination" input specifies a path that doesn\u2019t exist, the operation will create it. There is an exceptional case when the "source" input indicates to a file and the "destination" input indicates to a path that should be created. In this case the operation differentiates between a file or a folder by the last / from the "destination" path.\nExample\: C\:/Temp is a folder that exists, the rest of the folder from the following example should be created.\nC\:/Temp/f1/f2/f3 -> f3 is a file, the "source" file's content will be copied into f3 file.\nC\:/Temp/f1/f2/f3/ -> f3 is a folder, the "source" file will be copied into f3 folder.\n5. The "overwrite" is always true when the "source" input indicates to a folder. If the folder tree exists in the "destination" all the files and folders will be overwritten.\n6. This copy operation is modeled after the Windows command-line copy operation. So given a sample directory structure\:\n--DirectoryA\n   |--File1\n   |--File2\n   |--DirectoryC\n       |-File5\n\n--DirectoryB\n   |--File3\n   |--File4\n\nIf your Source is "DirectoryA" and your Destination is "DirectoryB" your end result will be\:\n--DirectoryA\n   |--File1\n   |--File2\n   |--DirectoryC\n       |-File5\n\n--DirectoryB\n   |--File3\n   |--File4\n   |--File1\n   |--File2\n   |--DirectoryC\n       |-File5\n</pre>
]]></descriptionCdata>
  <annotation></annotation>
  <name>filescopy_flow</name>
  <categories/>
  <inputs/>
  <possibleResponses>
    <opResponse id="c94cc904-e419-41a3-bfcc-4e9a79b3ce1e">
      <annotation></annotation>
      <name>success</name>
      <isDefault>true</isDefault>
      <onFailure>false</onFailure>
      <type>RESOLVED</type>
      <matchRules/>
    </opResponse>
    <opResponse id="6de579dc-326a-4341-8c61-67190290e052">
      <annotation></annotation>
      <name>failure</name>
      <isDefault>false</isDefault>
      <onFailure>true</onFailure>
      <type>ERROR</type>
      <matchRules/>
    </opResponse>
  </possibleResponses>
  <availableResultExpressions/>
  <resultExpression id="c5d94fa5-2110-4041-b143-ce11bfed4eac">
    <annotation></annotation>
    <name>FailureMessage</name>
    <fieldName>FailureMessage</fieldName>
    <sourceType>RAWRESULT</sourceType>
    <filters/>
  </resultExpression>
  <iconSpec id="d68a33d5-45bd-4c47-8bb5-886cda06d7ae">
    <baseIcon>flow.png</baseIcon>
    <basePath>System</basePath>
    <readOnly>false</readOnly>
    <layers/>
  </iconSpec>
  <callouts/>
  <checkPointFlow>true</checkPointFlow>
  <compatibleRuntimeContext>false</compatibleRuntimeContext>
  <historyCheckPointFlow>true</historyCheckPointFlow>
  <steps>
    <step id="9bcac842-3a6e-42f9-b20b-7fec14183d36">
      <annotation>97ea3eeb-d2f8-4767-915c-235aff703cf8.9bcac842-3a6e-42f9-b20b-7fec14183d36.description</annotation>
      <name>FS Copy</name>
      <bounds>
        <x>418.0</x>
        <y>203.0</y>
      </bounds>
      <layer>-1</layer>
      <hideInbound>false</hideInbound>
      <addResultToRunContext>false</addResultToRunContext>
      <isCriticalStep>false</isCriticalStep>
      <isNonBlocking>false</isNonBlocking>
      <isParallelStep>false</isParallelStep>
      <isSingleResponse>false</isSingleResponse>
      <recordInHistory>false</recordInHistory>
      <recordRawOutput>true</recordRawOutput>
      <recordPrimaryOutput>true</recordPrimaryOutput>
      <checkPointStep>true</checkPointStep>
      <historyCheckPointStep>true</historyCheckPointStep>
      <scriptResultStep>false</scriptResultStep>
      <userPrompt></userPrompt>
      <bindings>
        <staticBinding id="d0ebd94b-1215-421d-8f71-5a7b334b7975">
          <annotation></annotation>
          <toContextKey></toContextKey>
          <fromContextKey></fromContextKey>
          <assignFromContext>false</assignFromContext>
          <assignToContext>false</assignToContext>
          <inputType>STRING</inputType>
          <isList>false</isList>
          <required>true</required>
          <isPersisted>true</isPersisted>
          <inputSymbol>source</inputSymbol>
          <listDelimiter>,</listDelimiter>
          <value>C:\Users\VUttaravalli\sou_folder</value>
          <record>false</record>
        </staticBinding>
        <staticBinding id="fac5dfbc-1f5f-4730-8ff7-3fda5c336651">
          <annotation></annotation>
          <toContextKey></toContextKey>
          <fromContextKey></fromContextKey>
          <assignFromContext>false</assignFromContext>
          <assignToContext>false</assignToContext>
          <inputType>STRING</inputType>
          <isList>false</isList>
          <required>true</required>
          <isPersisted>true</isPersisted>
          <inputSymbol>destination</inputSymbol>
          <listDelimiter>,</listDelimiter>
          <value>C:\Users\VUttaravalli\dest_folder</value>
          <record>false</record>
        </staticBinding>
        <staticBinding id="96cf25dc-1c6e-4e65-b760-3993bd8b0257">
          <annotation></annotation>
          <toContextKey></toContextKey>
          <fromContextKey></fromContextKey>
          <assignFromContext>false</assignFromContext>
          <assignToContext>false</assignToContext>
          <inputType>STRING</inputType>
          <isList>false</isList>
          <required>true</required>
          <isPersisted>true</isPersisted>
          <inputSymbol>removeSource</inputSymbol>
          <listDelimiter>,</listDelimiter>
          <value>False</value>
          <record>false</record>
        </staticBinding>
        <staticBinding id="a9d44b36-8434-4493-bfa6-34b51b68bc67">
          <annotation></annotation>
          <toContextKey></toContextKey>
          <fromContextKey></fromContextKey>
          <assignFromContext>false</assignFromContext>
          <assignToContext>false</assignToContext>
          <inputType>STRING</inputType>
          <isList>false</isList>
          <required>false</required>
          <isPersisted>true</isPersisted>
          <inputSymbol>user</inputSymbol>
          <listDelimiter>,</listDelimiter>
          <record>false</record>
        </staticBinding>
        <staticBinding id="40f33f62-3237-4097-8bef-071ed5e487d3">
          <annotation></annotation>
          <toContextKey></toContextKey>
          <fromContextKey></fromContextKey>
          <assignFromContext>false</assignFromContext>
          <assignToContext>false</assignToContext>
          <inputType>ENCRYPTED</inputType>
          <isList>false</isList>
          <required>false</required>
          <isPersisted>true</isPersisted>
          <inputSymbol>password</inputSymbol>
          <listDelimiter>,</listDelimiter>
          <record>false</record>
        </staticBinding>
        <staticBinding id="f656a313-8ab6-4501-9a16-65bdc5d60eb8">
          <annotation></annotation>
          <toContextKey></toContextKey>
          <fromContextKey></fromContextKey>
          <assignFromContext>false</assignFromContext>
          <assignToContext>false</assignToContext>
          <inputType>STRING</inputType>
          <isList>false</isList>
          <required>false</required>
          <isPersisted>true</isPersisted>
          <inputSymbol>overwrite</inputSymbol>
          <listDelimiter>,</listDelimiter>
          <value>true</value>
          <record>false</record>
        </staticBinding>
      </bindings>
      <transitions>
        <transition id="963ffd30-41a0-443e-b3d0-17b21eb05dc7">
          <annotation></annotation>
          <name>success</name>
          <command>NEXT</command>
          <linkMode>false</linkMode>
          <responseSymbol>success</responseSymbol>
          <shouldHandoff>false</shouldHandoff>
          <transitionValue>0.0</transitionValue>
          <destination>
            <refId>2b2c5986-adc0-4a6a-ad34-ff34cc5ca583</refId>
          </destination>
          <source>
            <refId>9bcac842-3a6e-42f9-b20b-7fec14183d36</refId>
          </source>
          <positions>
            <point>
              <x>468.0</x>
              <y>237.0</y>
            </point>
            <point>
              <x>761.0</x>
              <y>266.0</y>
            </point>
          </positions>
          <labelPosition>
            <x>333.0</x>
            <y>0.0</y>
          </labelPosition>
        </transition>
        <transition id="e4eac88e-54bb-40b0-9c40-6e05433ea0a8">
          <annotation></annotation>
          <name>failure</name>
          <command>NEXT</command>
          <linkMode>false</linkMode>
          <responseSymbol>failure</responseSymbol>
          <shouldHandoff>false</shouldHandoff>
          <transitionValue>0.0</transitionValue>
          <destination>
            <refId>91aede46-3ac2-4173-9f8c-c503bc6d0e4d</refId>
          </destination>
          <source>
            <refId>9bcac842-3a6e-42f9-b20b-7fec14183d36</refId>
          </source>
          <positions>
            <point>
              <x>468.0</x>
              <y>237.0</y>
            </point>
            <point>
              <x>391.0</x>
              <y>577.0</y>
            </point>
          </positions>
          <labelPosition>
            <x>333.0</x>
            <y>0.0</y>
          </labelPosition>
        </transition>
      </transitions>
      <properties/>
      <opRef>
        <refId>65218cfb-ddac-4473-89cf-b118977bd9b0</refId>
      </opRef>
      <assignments/>
      <throttleSize>0</throttleSize>
    </step>
    <returnStep id="2b2c5986-adc0-4a6a-ad34-ff34cc5ca583">
      <annotation></annotation>
      <name>Resolved : success</name>
      <bounds>
        <x>706.0</x>
        <y>208.0</y>
      </bounds>
      <layer>-1</layer>
      <hideInbound>false</hideInbound>
      <addResultToRunContext>false</addResultToRunContext>
      <isCriticalStep>false</isCriticalStep>
      <isNonBlocking>false</isNonBlocking>
      <isParallelStep>false</isParallelStep>
      <isSingleResponse>false</isSingleResponse>
      <recordInHistory>false</recordInHistory>
      <recordRawOutput>true</recordRawOutput>
      <recordPrimaryOutput>true</recordPrimaryOutput>
      <checkPointStep>true</checkPointStep>
      <historyCheckPointStep>true</historyCheckPointStep>
      <scriptResultStep>false</scriptResultStep>
      <userPrompt></userPrompt>
      <bindings/>
      <transitions>
        <transition id="1b8304fd-44ab-47d4-802c-2d9e666df435">
          <annotation></annotation>
          <name>return</name>
          <command>NEXT</command>
          <linkMode>false</linkMode>
          <responseSymbol>success</responseSymbol>
          <shouldHandoff>false</shouldHandoff>
          <transitionValue>0.0</transitionValue>
          <destination>
            <refId>2b2c5986-adc0-4a6a-ad34-ff34cc5ca583</refId>
          </destination>
          <source>
            <refId>2b2c5986-adc0-4a6a-ad34-ff34cc5ca583</refId>
          </source>
          <positions/>
        </transition>
      </transitions>
      <properties/>
      <returnStepType>RESOLVED</returnStepType>
      <assignments/>
    </returnStep>
    <returnStep id="91aede46-3ac2-4173-9f8c-c503bc6d0e4d">
      <annotation></annotation>
      <name>Error : failure</name>
      <bounds>
        <x>420.0</x>
        <y>521.0</y>
      </bounds>
      <layer>-1</layer>
      <hideInbound>false</hideInbound>
      <addResultToRunContext>false</addResultToRunContext>
      <isCriticalStep>false</isCriticalStep>
      <isNonBlocking>false</isNonBlocking>
      <isParallelStep>false</isParallelStep>
      <isSingleResponse>false</isSingleResponse>
      <recordInHistory>false</recordInHistory>
      <recordRawOutput>true</recordRawOutput>
      <recordPrimaryOutput>true</recordPrimaryOutput>
      <checkPointStep>true</checkPointStep>
      <historyCheckPointStep>true</historyCheckPointStep>
      <scriptResultStep>false</scriptResultStep>
      <userPrompt></userPrompt>
      <bindings/>
      <transitions>
        <transition id="50828efb-72ef-457b-a7e4-1422a6e43abd">
          <annotation></annotation>
          <name>return</name>
          <command>NEXT</command>
          <linkMode>false</linkMode>
          <responseSymbol>failure</responseSymbol>
          <shouldHandoff>false</shouldHandoff>
          <transitionValue>0.0</transitionValue>
          <destination>
            <refId>91aede46-3ac2-4173-9f8c-c503bc6d0e4d</refId>
          </destination>
          <source>
            <refId>91aede46-3ac2-4173-9f8c-c503bc6d0e4d</refId>
          </source>
          <positions/>
        </transition>
      </transitions>
      <properties/>
      <returnStepType>ERROR</returnStepType>
      <assignments/>
    </returnStep>
  </steps>
  <startSteps>9bcac842-3a6e-42f9-b20b-7fec14183d36</startSteps>
</flow>