<?xml version="1.0" encoding="UTF-8"?>
<flow id="3b83199b-2ddf-4bcf-83db-8f395b09a49d">
  <descriptionCdata><![CDATA[3b83199b-2ddf-4bcf-83db-8f395b09a49d.029e952e-c550-4957-b283-29713d390f0b.description=<pre>\n\nDisplays a message to the user.\n\nInputs\:\n  message - The message text to display\n  title - The title on the message window. Defaults to "Status message".\n\nResponses\:\n  Always returns success.\n\nExamples\:\n  In order to display the message "Finished" to the user, go to the \n  detail screen for the input named "message" and change the Otherwise option\n  from Prompt User to Use Constant.  Then enter the text "Finished" into the\n  Constant Value field.\n\n  References to flow variables in the Contant Value field are expanded so that\n  the text may be dynamic.  Flow variable references are of the form\n  ${variable}.  For example, the text\:\n     ${count} systems were modified \n  could be used to display a message about the number of systems that were\n  repaired, whose value is in the flow variable "count".\n\n  When the message is displayed, it will properly render any embedded html\n  tags, which permits creating messages with more advanced formatting.  For \n  example to display a message in italics you could use\:\n    <i>This is important</i>\n  or to display a message in red\:\n    <i>This is <span style\="color\: red">really </span> important</i>\n\n  You can create messages that contain multiple lines by entering a multiple\n  line message in the Constant Value field, or by using HTML <BR> tags for line\n  breaks.  Note that \\n characters are displayed literally and are not used for\n  creating multiple lines.\n\n</pre>\n
3b83199b-2ddf-4bcf-83db-8f395b09a49d.acd88a84-7a9b-4789-ae0a-a2821088d70a.description=<pre>\n\nDisplays a message to the user.\n\nInputs\:\n  message - The message text to display\n  title - The title on the message window. Defaults to "Status message".\n\nResponses\:\n  Always returns success.\n\nExamples\:\n  In order to display the message "Finished" to the user, go to the \n  detail screen for the input named "message" and change the Otherwise option\n  from Prompt User to Use Constant.  Then enter the text "Finished" into the\n  Constant Value field.\n\n  References to flow variables in the Contant Value field are expanded so that\n  the text may be dynamic.  Flow variable references are of the form\n  ${variable}.  For example, the text\:\n     ${count} systems were modified \n  could be used to display a message about the number of systems that were\n  repaired, whose value is in the flow variable "count".\n\n  When the message is displayed, it will properly render any embedded html\n  tags, which permits creating messages with more advanced formatting.  For \n  example to display a message in italics you could use\:\n    <i>This is important</i>\n  or to display a message in red\:\n    <i>This is <span style\="color\: red">really </span> important</i>\n\n  You can create messages that contain multiple lines by entering a multiple\n  line message in the Constant Value field, or by using HTML <BR> tags for line\n  breaks.  Note that \\n characters are displayed literally and are not used for\n  creating multiple lines.\n\n</pre>\n
3b83199b-2ddf-4bcf-83db-8f395b09a49d.ce40a78a-afc3-4975-a997-6550ce10e49d.description=<pre>\nCompares two dates. If the locale is not specified, the inputs must be in the format of date/time format of OO Central Server's, which is dependent of Java Locale. You can use flow " Get Current Date and Time" to check upon the default date/time format. If locale is specified, the inputs must be in the format of the locale. If locale is not specified, then default locale will be used. In order to compare UNIX timestamps use 'unix' for localeLang input.\n\nInputs\:\n    d1 - The first date. \nValue format\:\nFormat is dependant on the 'localeLang' and 'localeCountry' inputs and, if the inputs are not provided, on the default locale. \n- If localeLang\="en" and localeCountry\="US" the format is "MMMM d, yyyy h\:mm\:ss a z".\n- If no localeLang is provided and the default locale is English the format is "MMM d, yyyy h\:mm\:ss a".\nThis is the meaning of the above pattern letters\:\ny\tYear, Examples\:\t1996; 96\nM\tMonth in year, Examples\:\tJuly; Jul; 07\nd\tDay in month, Examples\:\t10\na\tAm/pm marker, Examples\:\tPM\nh\tHour in am/pm (1-12), Ex.\:\t12\nm\tMinute in hour, Examples\:\t30\ns\tSecond in minute, Examples\:\t55\nz\tTime zone, Examples\:\tPacific Standard Time; PST; GMT-08\:00\nExamples\:\nIf locale is not specified and the US default locale is English, the format could be "July 12, 2006 4\:23\:20 PM" or "July 12, 2006 4\:23\:20 PM PST". If localeLang\="en" and localeCountry\="US", the format should be "July 12, 2006 4\:23\:20 PM PST".\n    d2 - The second date.  It must be in the format that is the same as d1.\n    threshold -The number of milliseconds around each date that still allows the dates to be considered equal.\n    localeLang - The locale language for date and time string. \nExamples\:  en, ja, unix.\n    localeCountry - The locale country for date and time string. For example, US or JP. If localeLang is not specified, this input will be ignored.\n\nResponses\:\n    before - If d1 is before d2.\n    equal - If d1 is < d2 + threshold and d1 > d2-threshold.\n    after - If d1 is after d2.\n    failure - Something went wrong.\n\nResults\:\n    The value of d1-d2 in milliseconds.\n\nNote\:\n    1. if localeLang is specified the date "LONG" style is used but if it is not specified the "DEFAULT" style is used. Example\: For U.S. Locale "LONG" style is "June 30, 2009 7\:03\:47 AM PDT" and "DEFAULT" style is "Jun 30, 2009 7\:03\:47 AM"\n    2. For UNIX timestamps, just use the value 'unix' for input LocaleLang and the operation will treat the input dates as UNIX timestamps. In this case localeCountry input is ignored.\n</pre>
3b83199b-2ddf-4bcf-83db-8f395b09a49d.e53d9a6b-8930-4f3b-b73c-c8af270c8290.description=<pre>\n\nDisplays a message to the user.\n\nInputs\:\n  message - The message text to display\n  title - The title on the message window. Defaults to "Status message".\n\nResponses\:\n  Always returns success.\n\nExamples\:\n  In order to display the message "Finished" to the user, go to the \n  detail screen for the input named "message" and change the Otherwise option\n  from Prompt User to Use Constant.  Then enter the text "Finished" into the\n  Constant Value field.\n\n  References to flow variables in the Contant Value field are expanded so that\n  the text may be dynamic.  Flow variable references are of the form\n  ${variable}.  For example, the text\:\n     ${count} systems were modified \n  could be used to display a message about the number of systems that were\n  repaired, whose value is in the flow variable "count".\n\n  When the message is displayed, it will properly render any embedded html\n  tags, which permits creating messages with more advanced formatting.  For \n  example to display a message in italics you could use\:\n    <i>This is important</i>\n  or to display a message in red\:\n    <i>This is <span style\="color\: red">really </span> important</i>\n\n  You can create messages that contain multiple lines by entering a multiple\n  line message in the Constant Value field, or by using HTML <BR> tags for line\n  breaks.  Note that \\n characters are displayed literally and are not used for\n  creating multiple lines.\n\n</pre>\n
3b83199b-2ddf-4bcf-83db-8f395b09a49d.edb68a35-2449-4e12-a7e8-3f89647d1c79.description=<pre>\n\nDisplays a message to the user.\n\nInputs\:\n  message - The message text to display\n  title - The title on the message window. Defaults to "Status message".\n\nResponses\:\n  Always returns success.\n\nExamples\:\n  In order to display the message "Finished" to the user, go to the \n  detail screen for the input named "message" and change the Otherwise option\n  from Prompt User to Use Constant.  Then enter the text "Finished" into the\n  Constant Value field.\n\n  References to flow variables in the Contant Value field are expanded so that\n  the text may be dynamic.  Flow variable references are of the form\n  ${variable}.  For example, the text\:\n     ${count} systems were modified \n  could be used to display a message about the number of systems that were\n  repaired, whose value is in the flow variable "count".\n\n  When the message is displayed, it will properly render any embedded html\n  tags, which permits creating messages with more advanced formatting.  For \n  example to display a message in italics you could use\:\n    <i>This is important</i>\n  or to display a message in red\:\n    <i>This is <span style\="color\: red">really </span> important</i>\n\n  You can create messages that contain multiple lines by entering a multiple\n  line message in the Constant Value field, or by using HTML <BR> tags for line\n  breaks.  Note that \\n characters are displayed literally and are not used for\n  creating multiple lines.\n\n</pre>\n
]]></descriptionCdata>
  <annotation></annotation>
  <name>greaterdate_flow</name>
  <categories/>
  <inputs/>
  <possibleResponses>
    <opResponse id="71b92f77-552c-4b5d-b5a3-20280404981a">
      <annotation></annotation>
      <name>success</name>
      <isDefault>true</isDefault>
      <onFailure>false</onFailure>
      <type>RESOLVED</type>
      <matchRules/>
    </opResponse>
  </possibleResponses>
  <availableResultExpressions/>
  <resultExpression id="b86fe93d-fe45-40b4-b6e6-fd3aa9cfe232">
    <annotation></annotation>
    <name>FailureMessage</name>
    <fieldName>FailureMessage</fieldName>
    <sourceType>RAWRESULT</sourceType>
    <filters/>
  </resultExpression>
  <iconSpec id="b825e327-70b9-499e-bf2d-0b326820381b">
    <baseIcon>flow.png</baseIcon>
    <basePath>System</basePath>
    <readOnly>false</readOnly>
    <layers/>
  </iconSpec>
  <callouts/>
  <checkPointFlow>true</checkPointFlow>
  <compatibleRuntimeContext>false</compatibleRuntimeContext>
  <historyCheckPointFlow>true</historyCheckPointFlow>
  <steps>
    <step id="ce40a78a-afc3-4975-a997-6550ce10e49d">
      <annotation>3b83199b-2ddf-4bcf-83db-8f395b09a49d.ce40a78a-afc3-4975-a997-6550ce10e49d.description</annotation>
      <name>Date and Time Comparator</name>
      <bounds>
        <x>440.0</x>
        <y>72.0</y>
      </bounds>
      <layer>-1</layer>
      <hideInbound>false</hideInbound>
      <addResultToRunContext>false</addResultToRunContext>
      <isCriticalStep>false</isCriticalStep>
      <isNonBlocking>false</isNonBlocking>
      <isParallelStep>false</isParallelStep>
      <isSingleResponse>false</isSingleResponse>
      <recordInHistory>false</recordInHistory>
      <recordRawOutput>true</recordRawOutput>
      <recordPrimaryOutput>true</recordPrimaryOutput>
      <checkPointStep>true</checkPointStep>
      <historyCheckPointStep>true</historyCheckPointStep>
      <scriptResultStep>false</scriptResultStep>
      <userPrompt></userPrompt>
      <bindings>
        <userInputBinding id="1fa44162-539e-49d1-89e3-e99caa224283">
          <annotation></annotation>
          <assignFromContext>false</assignFromContext>
          <assignToContext>false</assignToContext>
          <inputType>STRING</inputType>
          <isList>false</isList>
          <required>true</required>
          <isPersisted>true</isPersisted>
          <inputSymbol>d1</inputSymbol>
          <listDelimiter>,</listDelimiter>
          <record>false</record>
          <prompt></prompt>
          <isMultiSelect>false</isMultiSelect>
          <sourceDelimiter>|</sourceDelimiter>
        </userInputBinding>
        <userInputBinding id="c65968c7-204d-4cfc-b6bb-f7defafe74c7">
          <annotation></annotation>
          <assignFromContext>false</assignFromContext>
          <assignToContext>false</assignToContext>
          <inputType>STRING</inputType>
          <isList>false</isList>
          <required>true</required>
          <isPersisted>true</isPersisted>
          <inputSymbol>d2</inputSymbol>
          <listDelimiter>,</listDelimiter>
          <record>false</record>
          <prompt></prompt>
          <isMultiSelect>false</isMultiSelect>
          <sourceDelimiter>|</sourceDelimiter>
        </userInputBinding>
        <staticBinding id="e16445f1-99f1-4684-b58d-51d3a8b3788d">
          <annotation></annotation>
          <assignFromContext>false</assignFromContext>
          <assignToContext>false</assignToContext>
          <inputType>STRING</inputType>
          <isList>false</isList>
          <required>true</required>
          <isPersisted>true</isPersisted>
          <inputSymbol>threshold</inputSymbol>
          <listDelimiter>,</listDelimiter>
          <value></value>
          <record>false</record>
        </staticBinding>
        <staticBinding id="51efbfa2-8f22-491d-962e-de8d19fbe013">
          <annotation></annotation>
          <assignFromContext>false</assignFromContext>
          <assignToContext>false</assignToContext>
          <inputType>STRING</inputType>
          <isList>false</isList>
          <required>false</required>
          <isPersisted>true</isPersisted>
          <inputSymbol>localeLang</inputSymbol>
          <listDelimiter>,</listDelimiter>
          <record>false</record>
        </staticBinding>
        <staticBinding id="6a8853a9-03a8-4b2a-ad7e-e402cf26dd0d">
          <annotation></annotation>
          <assignFromContext>false</assignFromContext>
          <assignToContext>false</assignToContext>
          <inputType>STRING</inputType>
          <isList>false</isList>
          <required>false</required>
          <isPersisted>true</isPersisted>
          <inputSymbol>localeCountry</inputSymbol>
          <listDelimiter>,</listDelimiter>
          <record>false</record>
        </staticBinding>
      </bindings>
      <transitions>
        <transition id="d13b936d-0459-4641-ba5e-1a9ae815a496">
          <annotation></annotation>
          <name>failure</name>
          <command>NEXT</command>
          <linkMode>false</linkMode>
          <responseSymbol>failure</responseSymbol>
          <shouldHandoff>false</shouldHandoff>
          <transitionValue>0.0</transitionValue>
          <destination>
            <refId>029e952e-c550-4957-b283-29713d390f0b</refId>
          </destination>
          <source>
            <refId>ce40a78a-afc3-4975-a997-6550ce10e49d</refId>
          </source>
          <positions>
            <point>
              <x>488.0</x>
              <y>280.0</y>
            </point>
            <point>
              <x>690.0</x>
              <y>421.0</y>
            </point>
          </positions>
          <labelPosition>
            <x>333.0</x>
            <y>0.0</y>
          </labelPosition>
        </transition>
        <transition id="0d24033d-fa1c-4213-a34d-1c439cee88be">
          <annotation></annotation>
          <name>before</name>
          <command>NEXT</command>
          <linkMode>false</linkMode>
          <responseSymbol>before</responseSymbol>
          <shouldHandoff>false</shouldHandoff>
          <transitionValue>0.0</transitionValue>
          <destination>
            <refId>acd88a84-7a9b-4789-ae0a-a2821088d70a</refId>
          </destination>
          <source>
            <refId>ce40a78a-afc3-4975-a997-6550ce10e49d</refId>
          </source>
          <positions>
            <point>
              <x>488.0</x>
              <y>280.0</y>
            </point>
            <point>
              <x>530.0</x>
              <y>454.0</y>
            </point>
          </positions>
          <labelPosition>
            <x>333.0</x>
            <y>0.0</y>
          </labelPosition>
        </transition>
        <transition id="c5eca0b0-c5c6-49fe-9cc0-ffc25c814241">
          <annotation></annotation>
          <name>equal</name>
          <command>NEXT</command>
          <linkMode>false</linkMode>
          <responseSymbol>equal</responseSymbol>
          <shouldHandoff>false</shouldHandoff>
          <transitionValue>0.0</transitionValue>
          <destination>
            <refId>edb68a35-2449-4e12-a7e8-3f89647d1c79</refId>
          </destination>
          <source>
            <refId>ce40a78a-afc3-4975-a997-6550ce10e49d</refId>
          </source>
          <positions>
            <point>
              <x>488.0</x>
              <y>280.0</y>
            </point>
            <point>
              <x>355.0</x>
              <y>374.0</y>
            </point>
          </positions>
          <labelPosition>
            <x>333.0</x>
            <y>0.0</y>
          </labelPosition>
        </transition>
        <transition id="31abbedb-8038-4e4b-80fe-4cf54b70adf4">
          <annotation></annotation>
          <name>after</name>
          <command>NEXT</command>
          <linkMode>false</linkMode>
          <responseSymbol>after</responseSymbol>
          <shouldHandoff>false</shouldHandoff>
          <transitionValue>0.0</transitionValue>
          <destination>
            <refId>e53d9a6b-8930-4f3b-b73c-c8af270c8290</refId>
          </destination>
          <source>
            <refId>ce40a78a-afc3-4975-a997-6550ce10e49d</refId>
          </source>
          <positions>
            <point>
              <x>488.0</x>
              <y>280.0</y>
            </point>
            <point>
              <x>290.0</x>
              <y>214.0</y>
            </point>
          </positions>
          <labelPosition>
            <x>333.0</x>
            <y>0.0</y>
          </labelPosition>
        </transition>
      </transitions>
      <properties/>
      <opRef>
        <refId>f6c60b19-9de0-437b-90d3-577c18f764ba</refId>
      </opRef>
      <assignments/>
      <throttleSize>0</throttleSize>
    </step>
    <returnStep id="b1313d7b-e4f9-4602-a8f3-09e199da013b">
      <annotation></annotation>
      <name>Resolved : success</name>
      <bounds>
        <x>518.0</x>
        <y>604.0</y>
      </bounds>
      <layer>-1</layer>
      <hideInbound>false</hideInbound>
      <addResultToRunContext>false</addResultToRunContext>
      <isCriticalStep>false</isCriticalStep>
      <isNonBlocking>false</isNonBlocking>
      <isParallelStep>false</isParallelStep>
      <isSingleResponse>false</isSingleResponse>
      <recordInHistory>false</recordInHistory>
      <recordRawOutput>true</recordRawOutput>
      <recordPrimaryOutput>true</recordPrimaryOutput>
      <checkPointStep>true</checkPointStep>
      <historyCheckPointStep>true</historyCheckPointStep>
      <scriptResultStep>false</scriptResultStep>
      <userPrompt></userPrompt>
      <bindings/>
      <transitions>
        <transition id="31691d4a-ca3b-4dcd-a66c-2b643e90531b">
          <annotation></annotation>
          <name>return</name>
          <command>NEXT</command>
          <linkMode>false</linkMode>
          <responseSymbol>success</responseSymbol>
          <shouldHandoff>false</shouldHandoff>
          <transitionValue>0.0</transitionValue>
          <destination>
            <refId>b1313d7b-e4f9-4602-a8f3-09e199da013b</refId>
          </destination>
          <source>
            <refId>b1313d7b-e4f9-4602-a8f3-09e199da013b</refId>
          </source>
          <positions/>
        </transition>
      </transitions>
      <properties/>
      <returnStepType>RESOLVED</returnStepType>
      <assignments/>
    </returnStep>
    <step id="029e952e-c550-4957-b283-29713d390f0b">
      <annotation>3b83199b-2ddf-4bcf-83db-8f395b09a49d.029e952e-c550-4957-b283-29713d390f0b.description</annotation>
      <name>Display Message</name>
      <bounds>
        <x>634.0</x>
        <y>314.0</y>
      </bounds>
      <layer>-1</layer>
      <hideInbound>false</hideInbound>
      <addResultToRunContext>false</addResultToRunContext>
      <isCriticalStep>false</isCriticalStep>
      <isNonBlocking>false</isNonBlocking>
      <isParallelStep>false</isParallelStep>
      <isSingleResponse>false</isSingleResponse>
      <recordInHistory>false</recordInHistory>
      <recordRawOutput>true</recordRawOutput>
      <recordPrimaryOutput>true</recordPrimaryOutput>
      <checkPointStep>true</checkPointStep>
      <historyCheckPointStep>true</historyCheckPointStep>
      <scriptResultStep>false</scriptResultStep>
      <userPrompt></userPrompt>
      <bindings>
        <staticBinding id="c62c150c-2085-4e77-b627-16150e18bc23">
          <annotation></annotation>
          <assignFromContext>false</assignFromContext>
          <assignToContext>false</assignToContext>
          <inputType>STRING</inputType>
          <isList>false</isList>
          <required>true</required>
          <isPersisted>true</isPersisted>
          <inputSymbol>message</inputSymbol>
          <listDelimiter>,</listDelimiter>
          <value>failure</value>
          <record>false</record>
        </staticBinding>
        <staticBinding id="01978e88-5d6c-4e9d-b982-5d9a8b009367">
          <annotation></annotation>
          <assignFromContext>false</assignFromContext>
          <assignToContext>false</assignToContext>
          <inputType>STRING</inputType>
          <isList>false</isList>
          <required>false</required>
          <isPersisted>true</isPersisted>
          <inputSymbol>title</inputSymbol>
          <listDelimiter>,</listDelimiter>
          <value>Status message</value>
          <record>false</record>
        </staticBinding>
      </bindings>
      <transitions>
        <transition id="bd5210cc-63b1-47f1-bdcd-cc12afd6d359">
          <annotation></annotation>
          <name>success</name>
          <command>NEXT</command>
          <linkMode>false</linkMode>
          <responseSymbol>success</responseSymbol>
          <shouldHandoff>false</shouldHandoff>
          <transitionValue>0.0</transitionValue>
          <destination>
            <refId>b1313d7b-e4f9-4602-a8f3-09e199da013b</refId>
          </destination>
          <source>
            <refId>029e952e-c550-4957-b283-29713d390f0b</refId>
          </source>
          <positions>
            <point>
              <x>684.0</x>
              <y>348.0</y>
            </point>
            <point>
              <x>568.0</x>
              <y>638.0</y>
            </point>
          </positions>
          <labelPosition>
            <x>333.0</x>
            <y>0.0</y>
          </labelPosition>
        </transition>
      </transitions>
      <properties/>
      <opRef>
        <refId>434e6fa2-26bc-4e84-9e1f-0aa6946cf920</refId>
      </opRef>
      <assignments/>
      <throttleSize>0</throttleSize>
    </step>
    <step id="acd88a84-7a9b-4789-ae0a-a2821088d70a">
      <annotation>3b83199b-2ddf-4bcf-83db-8f395b09a49d.acd88a84-7a9b-4789-ae0a-a2821088d70a.description</annotation>
      <name>Display Message</name>
      <bounds>
        <x>478.0</x>
        <y>308.0</y>
      </bounds>
      <layer>-1</layer>
      <hideInbound>false</hideInbound>
      <addResultToRunContext>false</addResultToRunContext>
      <isCriticalStep>false</isCriticalStep>
      <isNonBlocking>false</isNonBlocking>
      <isParallelStep>false</isParallelStep>
      <isSingleResponse>false</isSingleResponse>
      <recordInHistory>false</recordInHistory>
      <recordRawOutput>true</recordRawOutput>
      <recordPrimaryOutput>true</recordPrimaryOutput>
      <checkPointStep>true</checkPointStep>
      <historyCheckPointStep>true</historyCheckPointStep>
      <scriptResultStep>false</scriptResultStep>
      <userPrompt></userPrompt>
      <bindings>
        <staticBinding id="87735ce3-2020-4c28-b7b7-85683389c2b1">
          <annotation></annotation>
          <assignFromContext>false</assignFromContext>
          <assignToContext>false</assignToContext>
          <inputType>STRING</inputType>
          <isList>false</isList>
          <required>true</required>
          <isPersisted>true</isPersisted>
          <inputSymbol>message</inputSymbol>
          <listDelimiter>,</listDelimiter>
          <value>d1 is smaller than d2</value>
          <record>false</record>
        </staticBinding>
        <staticBinding id="b97ef758-8152-457b-9c23-ae310e25812c">
          <annotation></annotation>
          <assignFromContext>false</assignFromContext>
          <assignToContext>false</assignToContext>
          <inputType>STRING</inputType>
          <isList>false</isList>
          <required>false</required>
          <isPersisted>true</isPersisted>
          <inputSymbol>title</inputSymbol>
          <listDelimiter>,</listDelimiter>
          <value>Status message</value>
          <record>false</record>
        </staticBinding>
      </bindings>
      <transitions>
        <transition id="2ba66a9d-019d-4563-a835-36c454f6cbe6">
          <annotation></annotation>
          <name>success</name>
          <command>NEXT</command>
          <linkMode>false</linkMode>
          <responseSymbol>success</responseSymbol>
          <shouldHandoff>false</shouldHandoff>
          <transitionValue>0.0</transitionValue>
          <destination>
            <refId>b1313d7b-e4f9-4602-a8f3-09e199da013b</refId>
          </destination>
          <source>
            <refId>acd88a84-7a9b-4789-ae0a-a2821088d70a</refId>
          </source>
          <positions>
            <point>
              <x>530.0</x>
              <y>454.0</y>
            </point>
            <point>
              <x>568.0</x>
              <y>638.0</y>
            </point>
          </positions>
          <labelPosition>
            <x>333.0</x>
            <y>0.0</y>
          </labelPosition>
        </transition>
      </transitions>
      <properties/>
      <opRef>
        <refId>434e6fa2-26bc-4e84-9e1f-0aa6946cf920</refId>
      </opRef>
      <assignments/>
      <throttleSize>0</throttleSize>
    </step>
    <step id="edb68a35-2449-4e12-a7e8-3f89647d1c79">
      <annotation>3b83199b-2ddf-4bcf-83db-8f395b09a49d.edb68a35-2449-4e12-a7e8-3f89647d1c79.description</annotation>
      <name>Display Message</name>
      <bounds>
        <x>343.0</x>
        <y>307.0</y>
      </bounds>
      <layer>-1</layer>
      <hideInbound>false</hideInbound>
      <addResultToRunContext>false</addResultToRunContext>
      <isCriticalStep>false</isCriticalStep>
      <isNonBlocking>false</isNonBlocking>
      <isParallelStep>false</isParallelStep>
      <isSingleResponse>false</isSingleResponse>
      <recordInHistory>false</recordInHistory>
      <recordRawOutput>true</recordRawOutput>
      <recordPrimaryOutput>true</recordPrimaryOutput>
      <checkPointStep>true</checkPointStep>
      <historyCheckPointStep>true</historyCheckPointStep>
      <scriptResultStep>false</scriptResultStep>
      <userPrompt></userPrompt>
      <bindings>
        <staticBinding id="b9b04bdc-2f84-4a61-ae88-0042a368d7fa">
          <annotation></annotation>
          <assignFromContext>false</assignFromContext>
          <assignToContext>false</assignToContext>
          <inputType>STRING</inputType>
          <isList>false</isList>
          <required>true</required>
          <isPersisted>true</isPersisted>
          <inputSymbol>message</inputSymbol>
          <listDelimiter>,</listDelimiter>
          <value>both dates are equel</value>
          <record>false</record>
        </staticBinding>
        <staticBinding id="1f4ced50-3da8-46b8-bcf9-987682fc1ffa">
          <annotation></annotation>
          <assignFromContext>false</assignFromContext>
          <assignToContext>false</assignToContext>
          <inputType>STRING</inputType>
          <isList>false</isList>
          <required>false</required>
          <isPersisted>true</isPersisted>
          <inputSymbol>title</inputSymbol>
          <listDelimiter>,</listDelimiter>
          <value>Status message</value>
          <record>false</record>
        </staticBinding>
      </bindings>
      <transitions>
        <transition id="d947ee52-5168-4970-ad04-98803caa2ea0">
          <annotation></annotation>
          <name>success</name>
          <command>NEXT</command>
          <linkMode>false</linkMode>
          <responseSymbol>success</responseSymbol>
          <shouldHandoff>false</shouldHandoff>
          <transitionValue>0.0</transitionValue>
          <destination>
            <refId>b1313d7b-e4f9-4602-a8f3-09e199da013b</refId>
          </destination>
          <source>
            <refId>edb68a35-2449-4e12-a7e8-3f89647d1c79</refId>
          </source>
          <positions>
            <point>
              <x>355.0</x>
              <y>374.0</y>
            </point>
            <point>
              <x>246.0</x>
              <y>220.0</y>
            </point>
          </positions>
          <labelPosition>
            <x>333.0</x>
            <y>0.0</y>
          </labelPosition>
        </transition>
      </transitions>
      <properties/>
      <opRef>
        <refId>434e6fa2-26bc-4e84-9e1f-0aa6946cf920</refId>
      </opRef>
      <assignments/>
      <throttleSize>0</throttleSize>
    </step>
    <step id="e53d9a6b-8930-4f3b-b73c-c8af270c8290">
      <annotation>3b83199b-2ddf-4bcf-83db-8f395b09a49d.e53d9a6b-8930-4f3b-b73c-c8af270c8290.description</annotation>
      <name>Display Message</name>
      <bounds>
        <x>182.0</x>
        <y>312.0</y>
      </bounds>
      <layer>-1</layer>
      <hideInbound>false</hideInbound>
      <addResultToRunContext>false</addResultToRunContext>
      <isCriticalStep>false</isCriticalStep>
      <isNonBlocking>false</isNonBlocking>
      <isParallelStep>false</isParallelStep>
      <isSingleResponse>false</isSingleResponse>
      <recordInHistory>false</recordInHistory>
      <recordRawOutput>true</recordRawOutput>
      <recordPrimaryOutput>true</recordPrimaryOutput>
      <checkPointStep>true</checkPointStep>
      <historyCheckPointStep>true</historyCheckPointStep>
      <scriptResultStep>false</scriptResultStep>
      <userPrompt></userPrompt>
      <bindings>
        <staticBinding id="8c0fe1f2-b59b-46fa-a6bc-db8549506c59">
          <annotation></annotation>
          <assignFromContext>false</assignFromContext>