<?xml version="1.0" encoding="UTF-8"?>
<flow id="b7409d63-1740-49d7-a475-48801d3289bf">
  <descriptionCdata><![CDATA[b7409d63-1740-49d7-a475-48801d3289bf.4833fc15-59e7-4efc-81b9-63704b70d595.description=<pre>Writes the data from "contents" input to the requested file. The operation can be used to overwrite existing content of the file,  append extra lines to it or even create a new file.\n\nInput Parameters\:\nfile                - Full path to file (can be a UNC path, will attempt to create directory structure). If the file does not exist it is created first.\ncontents        - The contents to write to the file. Contents can have a new line delimiter which is also given as input to the operation, but it is optional. Example\: "This is line no. 01\\nThis is line no. 2\\n" where \\n is the delimiter.\nuser              - Username to use for thread impersonation on the RAS host for this operation.\npassword      - Password for the user.\ndelimiter       - Specifies the newline delimiter (\\n, \\r\\n, etc) that is used for the "contents" input.\noverwrite      - Specifies whether to overwrite the file or append to it. By default, the used value is true. Accepted values\: true, false or the empty string. If this is left empty, the file will be overwritten.\ncharacterSet - The character encoding used to write to the file. The default is UTF-8. Example values\: windows-1252, UTF-16, UTF-16BE,  ISO-8859-1, US-ASCII, Shift_JIS etc.\n\nResponses\:\nsuccess - The contents were written to the file.\nfailure - The operation did not succeed in writing the contents to file.\n</pre>
b7409d63-1740-49d7-a475-48801d3289bf.64a6a97d-057c-4efe-8558-bd190cfa0ef4.description=<pre>\nThis operation does not do anything. It can be used to filter flow variables by defining them as inputs and filtering them in the Results tab.\n\nInputs\:\n    field1 \u2013 An optional input that can be used for filtering flow variables.\n    field2 \u2013 An optional input that can be used for filtering flow variables.\n    field3 \u2013 An optional input that can be used for filtering flow variables.\n    field4 \u2013 An optional input that can be used for filtering flow variables.\n\nResults\:\n    returnResult - This is the primary output. It contains the value of  "field1" as it was specified at input or when filtered. \n\nResponses\:\n    success - The operation completed as stated in the description.\n</pre>
b7409d63-1740-49d7-a475-48801d3289bf.73044e3d-e20a-4278-96ab-25fb1b8cf2b9.description=<pre>\nThis operation loops as many times as specified in the "count" input, counting from "1" to a greater number, incrementing it by "1" at each iteration.\n\nInputs\:\n    count - The number of loops to complete.\nValid values\: from 1 to 9223372036854775807\n    reset - Specifies whether the counter restarts counting from "1".\nValid values\: true, false\nDefault value\: false\n    to - The number to count to. It will take the value of the "count" input field. \n    from - The number to start counting at. For this operation, it is customized to "1".\n    incrementBy - The number to increment by while counting. For this operation, it is customized to "1".\n\nResults\:\n    resultString \u2013 This is the primary output. It contains the value of the number that was just counted.\n\nResponses\:\n    has more \u2013 The counting process is not complete. One or more iterations are pending.\n    no more \u2013 The counting process is complete.\n    failure - The operation completed unsuccessfully.\n\nNote\:\n1. It is recommended that you do not change the values of the "to", "from" or "incrementBy" input fields.\n2. The "from", "to" and "incrementBy" inputs are customized for this operation. Even though you can also customize them, if you need to specify the loop range borders and the increment value, use the "Counter" operation.\n\nExamples\:\n1. For a loop with 20 iterations, the following values should be provided for the input fields\:\n    count\: 20\n    reset\: false (this field can also be left blank, as "false" is the default value)\n2. For an infinite loop, the value of "count" should be at least "1" and the value of "reset" should be "true".\n</pre>
b7409d63-1740-49d7-a475-48801d3289bf.adbe0a6f-b6c4-49c8-b8bd-4f73020f2280.description=Inserts a new name/value property into a JSON object, where the value is a valid JSON string. If the <newPropertyValue> input is not a valid string representation of a JSON object, the operation fails.\nThe 'Add Property to Object' operation can be used to add a property with a simple string value. \n\nInputs\:\n    jsonObject - String representation of a JSON object. Objects in JSON are a collection of name value pairs, separated by a colon and surrounded with curly brackets {}. The name must be a string value, and the value can be a single string or any valid JSON object or array.\nExamples\: {"one"\:1, "two"\:2}, {"one"\:{"a"\:"a","B"\:"B"}, "two"\:"two", "three"\:[1,2,3.4]}\n    newPropertyName - The name of the new property to add to the JSON object. \nExamples\: property1, some_property, another property\n    newPropertyValue - The value for the new property. This must be a valid JSON representation of a JavaScript object.\nExamples\: 1, {"A"\:"A"}, [1,2,3,4]\n\nResults\:\n    Result - The JSON array with the inserted element.\n\nResponses\:\n    success - The operation completed as stated in the description.\n    failure - The operation completed unsuccessfully. See the message in <returnResult> for details.\n\nExamples\: \n1)\n    Inputs\:\n        jsonObject\: {}\n        newPropertyName\: test\n        newPropertyValue\: [1,2,3]\n     Result\:\n         { "test"\:[1,2,3]}\n2)\n    Inputs\:\n        jsonObject\: {}\n        newPropertyName\: test\n        newPropertyValue\: {"a"\:"b"}\n     Result\:\n         { "test"\:{"a"\:"b"}}\n3)\n    Inputs\:\n        jsonObject\: {}\n        newPropertyName\: test\n        newPropertyValue\: 1\n     Result\:\n         { "test"\:1}
b7409d63-1740-49d7-a475-48801d3289bf.f94f9b59-66e5-4e4e-b6f1-3b4d82fb2b48.description=<pre>This is a soft copy of 'Http Client' customized for the GET method (the input 'method'\='GET' should not be changed). Check the linked 'Http Client' operation.\n\nInputs\n    url - The web address to make the request to. This must be a standard URL as specified in RFC 3986. This is a required input.\nFormat\: scheme\://domain\:port/path?query_string\#fragment_id\nExamples\: https\://[fe80\:\:1260\:4bff\:fe49\:42fc]\:8080/my/path?key1\=val1&key2\=val2\#my_fragment\n    authType - The type of authentication used by this operation when trying to execute the request on the target server. The authentication is not preemptive\: a plain request not including authentication info will be made and only when the server responds with a 'WWW-Authenticate' header the client will send required headers. If the server needs no authentication but you specify one in this input the request will work nevertheless. The client cannot choose the authentication method and there is no fallback so you have to know which one you need. If the web application and proxy use different authentication types, these must be specified like in the Example model. \nDefault value\: Basic\nValid values\: Basic, digest, ntlm, kerberos, any, anonymous, "" or a list of valid values separated by comma.\nExample\: Basic,digest\n    username - The user name used for authentication. For NTLM authentication, the required format is 'domain\\user' and if you only specify the 'user' it will append a dot like '.\\user' so that a local user on the target machine can be used. In order for all authentication schemes to work (except Kerberos) username is required.\n    password - The password used for authentication.\n    preemptiveAuth - If this field is 'true' authentication info will be sent in the first request. If this is 'false' a request with no authentication info will be made and if server responds with 401 and a header like WWW-Authenticate\: Basic realm\="myRealm" only then the authentication info will be sent.\nDefault value\: true\nValid values\: true, false\n    proxyHost - The proxy server used to access the web site.\n    proxyPort - The proxy server port. Default value\: 8080. Valid values\: -1, and positive integer values. When the value is '-1' the default port of the scheme, specified in the 'proxyHost', will be used.\n    proxyUsername - The user name used when connecting to the proxy. The 'authType' input will be used to choose authentication type. The 'Basic' and 'Digest' proxy auth type are supported.\n    proxyPassword - The proxy server password associated with the proxyUsername input value.\n    tlsVersion  - This input allows a list of comma seperated values of the specific protocols to be used.Valid values SSLv3, TLSv1,TLSv1.1,TLSv1.2\nDefault value\:TLSv1.2\n    allowedCyphers - A comma delimited list of cyphers to use. The value of this input will be ignored if 'tlsVersion' does not contain 'TLSv1.2'. This capability is provided \u201Cas is\u201D, please see product documentation for further security considerations. In order to connect successfully to the target host, it should accept at least one of the following cyphers. If this is not the case, it is the user's responsibility to configure the host accordingly or to update the list of allowed cyphers.\nDefault values\: TLS_DHE_RSA_WITH_AES_256_GCM_SHA384,TLS_ECDHE_RSA_WITH_AES_128_GCM_SHA256,TLS_DHE_RSA_WITH_AES_256_CBC_SHA256,TLS_DHE_RSA_WITH_AES_128_CBC_SHA256,TLS_ECDHE_RSA_WITH_AES_256_CBC_SHA384,TLS_ECDHE_RSA_WITH_AES_128_CBC_SHA256,TLS_ECDHE_ECDSA_WITH_AES_128_CBC_SHA256,TLS_ECDHE_ECDSA_WITH_AES_128_GCM_SHA256,TLS_RSA_WITH_AES_256_GCM_SHA384,TLS_RSA_WITH_AES_256_CBC_SHA256,TLS_RSA_WITH_AES_128_CBC_SHA256\n    trustAllRoots - Specifies whether to enable weak security over SSL/TSL. A certificate is trusted even if no trusted certification authority issued it.\nDefault value\: false\nValid values\: true, false\n    x509HostnameVerifier - Specifies the way the server hostname must match a domain name in the subject's Common Name (CN) or subjectAltName field of the X.509 certificate. The hostname verification system prevents communication with other hosts other than the ones you intended. This is done by checking that the hostname is in the subject alternative name extension of the certificate. This system is designed to ensure that, if an attacker(Man In The Middle) redirects traffic to his machine, the client will not accept the connection. If you set this input to "allow_all", this verification is ignored and you become vulnerable to security attacks. For the value "browser_compatible" the hostname verifier works the same way as Curl and Firefox. The hostname must match either the first CN, or any of the subject-alts. A wildcard can occur in the CN, and in any of the subject-alts. The only difference between "browser_compatible" and "strict" is that a wildcard (such as "*.foo.com") with "browser_compatible" matches all subdomains, including "a.b.foo.com". From the security perspective, to provide protection against possible Man-In-The-Middle attacks, we strongly recommend to use "strict" option.\nDefault value\: strict\nValid values\: strict, browser_compatible, allow_all\n    trustKeystore - The pathname of the Java TrustStore file. This contains certificates from other parties that you expect to communicate with, or from Certificate Authorities that you trust to identify other parties.  If the protocol (specified by the 'url') is not 'https' or if trustAllRoots is 'true' this input is ignored.\nDefault value\: <OO_Home>/java/lib/security/cacerts\nFormat\: Java KeyStore (JKS)\n    trustPassword - The password associated with the TrustStore file. If trustAllRoots is false and trustKeystore is empty, trustPassword default will be supplied.\nDefault value\: changeit\n    keystore - The pathname of the Java KeyStore file. You only need this if the server requires client authentication. If the protocol (specified by the 'url') is not 'https' or if trustAllRoots is 'true' this input is ignored.\nDefault value\: <OO_Home>/java/lib/security/cacerts\nFormat\: Java KeyStore (JKS)\n    keystorePassword - The password associated with the KeyStore file. If trustAllRoots is false and keystore is empty, keystorePassword default will be supplied.\nDefault value\: changeit\n    connectTimeout - The time to wait for a connection to be established, in seconds. A timeout value of '0' represents an infinite timeout.\nDefault value\: 0\nFormat\: an integer representing seconds\nExamples\: 10, 20\n    socketTimeout - The timeout for waiting for data (a maximum period inactivity between two consecutive data packets), in seconds. A socketTimeout value of '0' represents an infinite timeout.\nDefault value\: 0\nFormat\: an integer representing seconds\n    useCookies - Specifies whether to enable cookie tracking or not. Cookies are stored between consecutive calls in a serializable session object therefore they will be available on a branch level (same subflow, same lane). If you specify a non-boolean value, the default value is used.\nDefault value\: true\nValid values\: true,false\n    keepAlive - Specifies whether to create a shared connection that will be used in subsequent calls. If keepAlive is false, the already open connection will be used and after execution it will close it. The operation will use a connection pool stored in a GlobalSessionObject that will be available throughout the execution (the flow and subflows, between parallel split lanes).\nDefault value\: true\nValid values\: true, false\n    connectionsMaxPerRoute - The maximum limit of connections on a per route basis. The default will create no more than 2 concurrent connections per given route.\nDefault value\: 2\n    connectionsMaxTotal - The maximum limit of connections in total. The default will create no more than 20 concurrent connections in total.\nDefault value\: 20\n    followRedirects - Specifies whether the HTTP client automatically follows redirects.  Redirects explicitly prohibited by the HTTP specification as requiring user intervention will not be followed (redirects on POST and PUT requests that are converted to GET requests). If you specify a non-boolean value, the default value is used.\nDefault value\: true\nValid values\: true, false\n    headers - The list containing the headers to use for the request separated by new line (CRLF).The header name - value pair will be separated by "\:".\nFormat\: Conforming with HTTP standard for headers (RFC 2616).\nExamples\: Accept\:text/plain\n    destinationFile - The absolute path of a file on disk where to save the entity returned by the response. 'returnResult' will no longer be populated with the entity if this is specified. You should not use this for method\=HEAD or OPTIONS.\tExample\: C\:\\temp\\destinationFile.txt\n    responseCharacterSet - The character encoding to be used for the HTTP response. If responseCharacterSet is empty, the charset from the 'Content-Type' HTTP response header will be used. If responseCharacterSet is empty and the charset from the HTTP response Content-Type header is empty, the default value will be used. You should not use this for method\=HEAD or OPTIONS.\nDefault value\: ISO-8859-1\n    queryParams - The list containing query parameters to append to the URL. The names and the values must not be URL encoded unless you specify "queryParamsAreURLEncoded"\=true because if they are encoded and "queryParamsAreURLEncoded"\=false they will get double encoded. The separator between name-value pairs is  "&". The query name will be separated from query value by "\=". Note that you need to URL encode at least "&" to "%26" and "\=" to "%3D" and set "queryParamsAreURLEncoded"\="true" if you leave the other special URL characters unencoded they will be encoded by the HTTP Client.\nExamples\: parameterName1\=parameterValue1&parameterName2\=parameterValue2;\n    queryParamsAreURLEncoded - Specifies whether to encode  (according to the url encoding standard) the queryParams. If you set "queryParamsAreURLEncoded"\=true and you have invalid characters in 'queryParams' they will get encoded anyway. If you specify a non-boolean value, the default value is used.\nDefault value\: false\nValid values\: true, false\n    queryParamsAreFormEncoded - Specifies whether to encode the queryParams in the the default format used by the apache http client library - form format. If this input is true then all characters will be encoded based on the queryParamsAreURLEncoded input.If queryParamsAreFormEncoded\=false all reserved chars are not encoded no matter of queryParamsAreURLEncoded input.The only exceptions are for space(' ')character which is encoded as %20 and + (plus) which is encoded as %20 and not encoded if queryParamsAreURLEncoded\=false. Check the "v2.0" folder description for more details.\nDefault value\: true. \nValid values\: true, false\nExample\: query\=test te%20@st will be encoded in query\=test%20te%20@st\n    method - The HTTP method used. This is a required input.\n\nOutputs\n    returnResult - This will contain the response entity (unless 'destinationFile' is specified). In case of an error this output will contain the error message.\n    exception - In case of success response, this result is empty. In case of failure response, this result contains the java stack trace of the runtime exception.\n    statusCode - The HTTP status code.\nFormat\: 1xx (Informational - Request received, continuing process), 2xx (Success - The action was successfully received, understood, and accepted), 3xx (Redirection - Further action must be taken in order to complete the request), 4xx (Client Error - The request contains bad syntax or cannot be fulfilled), 5xx Server Error - The server failed to fulfil an apparently valid request)\nExamples\: 200, 404\n    finalLocation - The final location after redirects.\nFormat\: URL\n    responseHeaders - The list containing the headers of the response message, separated by newline.\nFormat\: This is conforming with HTTP standard for headers (RFC 2616).\n    protocolVersion - The HTTP protocol version.\nExamples\: HTTP/1.1\n    reasonPhrase - The reason phrase from the origin HTTP response. This depends on the status code and are according to RFC 1945 and RFC 2048\nExamples\: (HTTP 1.0)\: OK, Created, Accepted, No Content, Moved Permanently, Moved Temporarily, Not Modified, Bad Request, Unauthorized, Forbidden, Not Found, Internal Server Error, Not Implemented, Bad Gateway, Service Unavailable\tValues (HTTP 1.1)\: Continue, Temporary Redirect, Method Not Allowed, Conflict, Precondition Failed, Request Too Long, Request-URI Too Long, Unsupported Media Type, Multiple Choices, See Other, Use Proxy, Payment Required, Not Acceptable, Proxy Authentication Required, Request Timeout, Switching Protocols, Non Authoritative Information, Reset Content, Partial Content, Gateway Timeout, Http Version Not Supported, Gone, Length Required, Requested Range Not Satisfiable, Expectation Failed\n    returnCode - The returnCode of the operation\: 0 for success, -1 for failure.\n\nResponses\n    success - The operation completed without a runtime exception. So it will go to success for any  http codes even those in the 400-599 range.\n    failure - A runtime exception occurred. This may be due to incorrectly formated inputs (authType, contentType, headers, method, proxy, queryParams, requestCharacterSet, responseCharacterSet, truststore, url), or failed ntlm or Kerberos authentication.\n\nNotes\nCheck the "v2.0" folder description for more help.\n</pre>\n
]]></descriptionCdata>
  <annotation></annotation>
  <name>json_filter_flow</name>
  <categories/>
  <inputs/>
  <possibleResponses>
    <opResponse id="f92e02d0-8f11-4ce8-a40a-498365e4ee8f">
      <annotation></annotation>
      <name>success</name>
      <isDefault>true</isDefault>
      <onFailure>false</onFailure>
      <type>RESOLVED</type>
      <matchRules/>
    </opResponse>
    <opResponse id="ff29a2ab-6f31-4b43-9417-70f776db3474">
      <annotation></annotation>
      <name>failure</name>
      <isDefault>false</isDefault>
      <onFailure>true</onFailure>
      <type>ERROR</type>
      <matchRules/>
    </opResponse>
  </possibleResponses>
  <availableResultExpressions/>
  <resultExpression id="f55aed8b-f5bf-4fb7-a678-53a60c72ef4b">
    <annotation></annotation>
    <name>FailureMessage</name>
    <fieldName>FailureMessage</fieldName>
    <sourceType>RAWRESULT</sourceType>
    <filters/>
  </resultExpression>
  <iconSpec id="f3c326c7-18d2-4949-b086-6957f8066dc7">
    <baseIcon>flow.png</baseIcon>
    <basePath>System</basePath>
    <readOnly>false</readOnly>
    <layers/>
  </iconSpec>
  <callouts/>
  <checkPointFlow>true</checkPointFlow>
  <compatibleRuntimeContext>false</compatibleRuntimeContext>
  <historyCheckPointFlow>true</historyCheckPointFlow>
  <steps>
    <step id="f94f9b59-66e5-4e4e-b6f1-3b4d82fb2b48">
      <annotation>b7409d63-1740-49d7-a475-48801d3289bf.f94f9b59-66e5-4e4e-b6f1-3b4d82fb2b48.description</annotation>
      <name>Http Client Get</name>
      <bounds>
        <x>178.0</x>
        <y>135.0</y>
      </bounds>
      <layer>-1</layer>
      <hideInbound>false</hideInbound>
      <iconSpec id="4e0411dd-1d8d-4d83-8ff9-30b212662be3">
        <baseIcon>earth.png</baseIcon>
        <basePath>/Networking/</basePath>
        <readOnly>false</readOnly>
        <layers/>
      </iconSpec>
      <addResultToRunContext>false</addResultToRunContext>
      <isCriticalStep>false</isCriticalStep>
      <isNonBlocking>false</isNonBlocking>
      <isParallelStep>false</isParallelStep>
      <isSingleResponse>false</isSingleResponse>
      <recordInHistory>false</recordInHistory>
      <recordRawOutput>true</recordRawOutput>
      <recordPrimaryOutput>true</recordPrimaryOutput>
      <checkPointStep>true</checkPointStep>
      <historyCheckPointStep>true</historyCheckPointStep>
      <scriptResultStep>false</scriptResultStep>
      <userPrompt></userPrompt>
      <bindings>
        <staticBinding id="04107ec1-cf7b-47a8-b3dc-470fbd0552f6">
          <assignFromContext>false</assignFromContext>
          <assignToContext>false</assignToContext>
          <inputType>STRING</inputType>
          <isList>false</isList>
          <required>true</required>
          <isPersisted>true</isPersisted>
          <inputSymbol>url</inputSymbol>
          <listDelimiter>,</listDelimiter>
          <value>https://jsonplaceholder.typicode.com/posts</value>
          <record>false</record>
        </staticBinding>
        <staticBinding id="2975b76d-7118-4f9d-909b-9d7e25d2ec8c">
          <annotation></annotation>
          <assignFromContext>false</assignFromContext>
          <assignToContext>false</assignToContext>
          <inputType>STRING</inputType>
          <isList>false</isList>
          <required>false</required>
          <isPersisted>true</isPersisted>
          <inputSymbol>authType</inputSymbol>
          <listDelimiter>,</listDelimiter>
          <value>Basic</value>
          <record>false</record>
        </staticBinding>
        <staticBinding id="81f0526d-a4be-412f-bad6-7d1d06d7f112">
          <annotation></annotation>
          <assignFromContext>false</assignFromContext>
          <assignToContext>false</assignToContext>
          <inputType>STRING</inputType>
          <isList>false</isList>
          <required>false</required>
          <isPersisted>true</isPersisted>
          <inputSymbol>username</inputSymbol>
          <listDelimiter>,</listDelimiter>
          <value>vinod100g</value>
          <record>false</record>
        </staticBinding>
        <staticBinding id="53f4953c-4bb2-4e7b-9784-e786e5cd9d72">
          <annotation></annotation>
          <assignFromContext>false</assignFromContext>
          <assignToContext>false</assignToContext>
          <inputType>ENCRYPTED</inputType>
          <isList>false</isList>
          <required>false</required>
          <isPersisted>true</isPersisted>
          <inputSymbol>password</inputSymbol>
          <listDelimiter>,</listDelimiter>
          <value>{OBFUSCATED}FCg3ex59toCIim0W7jwENA==</value>
          <record>false</record>
        </staticBinding>
        <staticBinding id="06deebcb-aa93-40ba-9294-e79ff70c01c8">
          <annotation></annotation>
          <assignFromContext>false</assignFromContext>
          <assignToContext>false</assignToContext>
          <inputType>STRING</inputType>
          <isList>false</isList>
          <required>false</required>
          <isPersisted>true</isPersisted>
          <inputSymbol>preemptiveAuth</inputSymbol>
          <listDelimiter>,</listDelimiter>
          <value>true</value>
          <record>false</record>
        </staticBinding>
        <staticBinding id="817a8fa0-a276-4017-8621-2793b0583996">
          <annotation></annotation>
          <assignFromContext>false</assignFromContext>
          <assignToContext>false</assignToContext>
          <inputType>STRING</inputType>
          <isList>false</isList>
          <required>false</required>
          <isPersisted>true</isPersisted>
          <inputSymbol>proxyHost</inputSymbol>
          <listDelimiter>,</listDelimiter>
          <record>false</record>
        </staticBinding>
        <staticBinding id="cb15e53f-40f1-4d95-8f73-c2822a5913c8">
          <annotation></annotation>
          <assignFromContext>false</assignFromContext>
          <assignToContext>false</assignToContext>
          <inputType>STRING</inputType>
          <isList>false</isList>
          <required>false</required>
          <isPersisted>true</isPersisted>
          <inputSymbol>proxyPort</inputSymbol>
          <listDelimiter>,</listDelimiter>
          <value>8080</value>
          <record>false</record>
        </staticBinding>
        <staticBinding id="bd0e44da-4f94-41bc-a343-87854a3d9051">
          <annotation></annotation>
          <assignFromContext>false</assignFromContext>
          <assignToContext>false</assignToContext>
          <inputType>STRING</inputType>
          <isList>false</isList>
          <required>false</required>
          <isPersisted>true</isPersisted>
          <inputSymbol>proxyUsername</inputSymbol>
          <listDelimiter>,</listDelimiter>
          <record>false</record>
        </staticBinding>
        <staticBinding id="cae05b6d-e96e-4959-ab55-09f0192b75ba">
          <annotation></annotation>
          <assignFromContext>false</assignFromContext>
          <assignToContext>false</assignToContext>
          <inputType>ENCRYPTED</inputType>
          <isList>false</isList>
          <required>false</required>
          <isPersisted>true</isPersisted>
          <inputSymbol>proxyPassword</inputSymbol>
          <listDelimiter>,</listDelimiter>
          <record>false</record>
        </staticBinding>
        <staticBinding id="fe273e0b-fec2-4ef2-aac9-e96a937ca9cc">
          <annotation></annotation>
          <assignFromContext>false</assignFromContext>
          <assignToContext>false</assignToContext>
          <inputType>STRING</inputType>
          <isList>false</isList>
          <required>false</required>
          <isPersisted>true</isPersisted>
          <inputSymbol>tlsVersion</inputSymbol>
          <listDelimiter>,</listDelimiter>
          <value>TLSv1.2</value>
          <record>false</record>
        </staticBinding>
        <staticBinding id="eb552227-c337-43bb-b04a-f1952f6de320">
          <annotation></annotation>
          <assignFromContext>false</assignFromContext>
          <assignToContext>false</assignToContext>
          <inputType>STRING</inputType>
          <isList>false</isList>
          <required>false</required>
          <isPersisted>true</isPersisted>
          <inputSymbol>allowedCyphers</inputSymbol>
          <listDelimiter>,</listDelimiter>
          <value>TLS_DHE_RSA_WITH_AES_256_GCM_SHA384,TLS_ECDHE_RSA_WITH_AES_128_GCM_SHA256,TLS_DHE_RSA_WITH_AES_256_CBC_SHA256,TLS_DHE_RSA_WITH_AES_128_CBC_SHA256,TLS_ECDHE_RSA_WITH_AES_256_CBC_SHA384,TLS_ECDHE_RSA_WITH_AES_128_CBC_SHA256,TLS_ECDHE_ECDSA_WITH_AES_128_CBC_SHA256,TLS_ECDHE_ECDSA_WITH_AES_128_GCM_SHA256,TLS_RSA_WITH_AES_256_GCM_SHA384,TLS_RSA_WITH_AES_256_CBC_SHA256,TLS_RSA_WITH_AES_128_CBC_SHA256</value>
          <record>false</record>
        </staticBinding>
        <staticBinding id="3331ed01-fe17-4a44-ad18-38514faafdf2">
          <annotation></annotation>
          <assignFromContext>false</assignFromContext>
          <assignToContext>false</assignToContext>
          <inputType>STRING</inputType>
          <isList>false</isList>
          <required>false</required>
          <isPersisted>true</isPersisted>
          <inputSymbol>trustAllRoots</inputSymbol>
          <listDelimiter>,</listDelimiter>
          <value>false</value>
          <record>false</record>
        </staticBinding>
        <staticBinding id="7da8f318-5b78-441c-b25e-be93c07360a8">
          <annotation></annotation>
          <assignFromContext>false</assignFromContext>
          <assignToContext>false</assignToContext>
          <inputType>STRING</inputType>
          <isList>false</isList>
          <required>false</required>
          <isPersisted>true</isPersisted>
          <inputSymbol>x509HostnameVerifier</inputSymbol>
          <listDelimiter>,</listDelimiter>
          <value>strict</value>
          <record>false</record>
        </staticBinding>
        <staticBinding id="a333a1d8-7a36-4faf-9207-64c1c154ddbf">
          <annotation></annotation>
          <assignFromContext>false</assignFromContext>
          <assignToContext>false</assignToContext>
          <inputType>STRING</inputType>
          <isList>false</isList>
          <required>false</required>
          <isPersisted>true</isPersisted>
          <inputSymbol>trustKeystore</inputSymbol>
          <listDelimiter>,</listDelimiter>
          <record>false</record>
        </staticBinding>