<?xml version="1.0" encoding="UTF-8"?>
<flow id="4bfb64f9-27fe-4853-be7a-09269f4f9b63">
  <descriptionCdata><![CDATA[4bfb64f9-27fe-4853-be7a-09269f4f9b63.684b247e-5297-4124-9d87-c4b0d713a82b.description=<pre>\nThis operation does not do anything. It can be used to filter flow variables by defining them as inputs and filtering them in the Results tab.\n\nInputs\:\n    field1 \u2013 An optional input that can be used for filtering flow variables.\n    field2 \u2013 An optional input that can be used for filtering flow variables.\n    field3 \u2013 An optional input that can be used for filtering flow variables.\n    field4 \u2013 An optional input that can be used for filtering flow variables.\n\nResults\:\n    returnResult - This is the primary output. It contains the value of  "field1" as it was specified at input or when filtered. \n\nResponses\:\n    success - The operation completed as stated in the description.\n</pre>
4bfb64f9-27fe-4853-be7a-09269f4f9b63.7232a899-5ad2-4ed2-8cbc-de4d7f376aae.description=<pre>Writes the data from "contents" input to the requested file. The operation can be used to overwrite existing content of the file,  append extra lines to it or even create a new file.\n\nInput Parameters\:\nfile                - Full path to file (can be a UNC path, will attempt to create directory structure). If the file does not exist it is created first.\ncontents        - The contents to write to the file. Contents can have a new line delimiter which is also given as input to the operation, but it is optional. Example\: "This is line no. 01\\nThis is line no. 2\\n" where \\n is the delimiter.\nuser              - Username to use for thread impersonation on the RAS host for this operation.\npassword      - Password for the user.\ndelimiter       - Specifies the newline delimiter (\\n, \\r\\n, etc) that is used for the "contents" input.\noverwrite      - Specifies whether to overwrite the file or append to it. By default, the used value is true. Accepted values\: true, false or the empty string. If this is left empty, the file will be overwritten.\ncharacterSet - The character encoding used to write to the file. The default is UTF-8. Example values\: windows-1252, UTF-16, UTF-16BE,  ISO-8859-1, US-ASCII, Shift_JIS etc.\n\nResponses\:\nsuccess - The contents were written to the file.\nfailure - The operation did not succeed in writing the contents to file.\n</pre>
4bfb64f9-27fe-4853-be7a-09269f4f9b63.92ec4046-6a4c-424e-af6f-d284f1e0ab24.description=<pre> \nThis operation reads the content of a file. The operation can be used to read the entire file content in one step or to iterate the file line by line.\n\nInputs\:\n    source - The full path and filename of the file to be read. A UNC path can be supported as the source file path.\n    filter -  Regular expression filter to be applied to each line (leave blank for no filter). If this filter is not blank, all rows that contain the filter string will be returned. If no match is found, no lines will be returned.\n    store - Whether to store results in the session for retrieval. If "store" is set to true, then all matching lines are pushed into the Session and then subsequent calls to the operation results in the next line being returned.  If set to "false", the file will be iterated and in any iteration the number of remaining lines that matched the "filter" will be returned.\nValid values \: true, false\n    delimiter - If specified, the entire content of the file  will be read, the specified value will be used as a delimiter between the rows and  the resulting content will be returned. If left blank, the next row will be returned for each subsequent call. \n    user - Username to use for thread impersonation on the RAS host when reading.\n    password - Password for the user.\n    eofReset -  If set to true, after the No More response has been returned once, the operation will restart reading the file from the beginning on the next call.\nValid values\: true, false\n    characterSet - The character set of the file to read from. For invalid or empty input value the default encoding will be used. \nValid values\: UTF-8, UTF-16 and UTF-32 \nDefault value\: UTF-8\n\nResponses\:\n    more lines - More lines are available to be read in the session.\n    no more lines - No lines are available for reading in the session.\n    failure - If something went wrong. \n\nResults\:\n    returnCode - This is the primary output. It is 0 if the operation completed successfully  (or if more rows are available when iterate is set to true), 1 if no more items (if iterate is set to true) and -1 in case of failure. \n    COUNT- The number of lines that matched the filter, or if no filter specified, the total lines read (if iterate is false, or delimiter is not null). Otherwise, it returns the number of lines remaining in the session. This result is only returned in line-by-line mode.\n    returnResult - Each row by turn (if iterate is true and delimiter is blank) or all rows separated by the delimiter (if iterate is true and delimiter is not blank).\n    exception - An exception message if the operation fails.\n\nNote\:\n1. If you are using UTF-8 special characters(for example japanese characters), please ensure that your file is encoded in UTF-8 and not in ANSI wich is the default file encoding in windows when you are creating a new file.\n2. The "filter" and "eofReset" fields are taken into consideration only if iterate is set to true. Otherwise, they have no impact on the result.\n3. If i"store" is set to "true" and "delimiter" is not null, the entire file may or may not still be fully read at once, depending on size. \n4. If "store" is set to "true", then all matching lines are pushed into the Session and then, subsequent calls to the operation, result in the next line being returned.\n\nExamples\:\n    The following examples are used to illustrate the behavior of the operation for three specific use cases. For these examples, the operation will use as the input source a file called "example.txt", with the absolute path "C\:\\Program Files\\example.txt" and the following content\:\n        "line1\n         line2\n         line3\n         line4"\n1. This is a valid inputs example for reading the content of a file, when the "store" input field is set to "true" and the "delimiter" input field is not left blank\:\n        source\: C\:\\Program Files\\example.txt\n        filter\:\n        store\: true\n        delimiter\: ,\n        eofReset\: false\n        characterSet\: UTF-8\n    In this case, the "returnResult" output field of the operation will have the following value\: line1,line2,line3,line4\n2. This is a valid inputs example for reading the content of a file, when the "store" input field is set to "true" and the "delimiter" input field is left blank\:\n        source\: C\:\\Program Files\\example.txt\n        filter\:\n        store\: true\n        delimiter\:\n        eofReset\: false\n        characterSet\: UTF-8\n    In this case, the file will be iterated row by row in four subsequent calls. At each call, the "returnResult" output field of the operation will contain the value of one line from the file, in the same order as they are found in the source file (i.e. line1, line2, lin3, line4). \n3. This is a valid inputs example for reading the content of a file, when the "store" input field is set to "false" and the "delimiter" input field is left blank\:       \n        source\: C\:\\Program Files\\example.txt\n        filter\:\n        iterate\: false\n        delimiter\:\n        eofReset\: false\n        characterSet\: UTF-8\n    In this case, all matching lines will be iterated and the "returnResult" field will contain, at each iteration, the number of lines remaining to be iterated (i.e\: 4, 3, 2, 1).\n\n</pre>
]]></descriptionCdata>
  <annotation></annotation>
  <name>logwrite_flow</name>
  <categories/>
  <inputs/>
  <possibleResponses>
    <opResponse id="56760d1a-aab4-4612-a335-bb8372941335">
      <annotation></annotation>
      <name>failure</name>
      <isDefault>false</isDefault>
      <onFailure>true</onFailure>
      <type>ERROR</type>
      <matchRules/>
    </opResponse>
    <opResponse id="6aaccfdb-cfc9-4edb-a752-c5f2ff4ba6c1">
      <annotation></annotation>
      <name>success</name>
      <isDefault>true</isDefault>
      <onFailure>false</onFailure>
      <type>RESOLVED</type>
      <matchRules/>
    </opResponse>
  </possibleResponses>
  <availableResultExpressions/>
  <resultExpression id="665af52d-b318-45a9-8cc9-ffa941d12ac6">
    <annotation></annotation>
    <name>FailureMessage</name>
    <fieldName>FailureMessage</fieldName>
    <sourceType>RAWRESULT</sourceType>
    <filters/>
  </resultExpression>
  <iconSpec id="1c75a09d-2fa9-408e-96d0-12d20b307291">
    <baseIcon>flow.png</baseIcon>
    <basePath>System</basePath>
    <readOnly>false</readOnly>
    <layers/>
  </iconSpec>
  <callouts/>
  <checkPointFlow>true</checkPointFlow>
  <compatibleRuntimeContext>false</compatibleRuntimeContext>
  <historyCheckPointFlow>true</historyCheckPointFlow>
  <steps>
    <step id="92ec4046-6a4c-424e-af6f-d284f1e0ab24">
      <annotation>4bfb64f9-27fe-4853-be7a-09269f4f9b63.92ec4046-6a4c-424e-af6f-d284f1e0ab24.description</annotation>
      <name>Read File</name>
      <bounds>
        <x>213.0</x>
        <y>303.0</y>
      </bounds>
      <layer>-1</layer>
      <hideInbound>false</hideInbound>
      <addResultToRunContext>false</addResultToRunContext>
      <isCriticalStep>false</isCriticalStep>
      <isNonBlocking>false</isNonBlocking>
      <isParallelStep>false</isParallelStep>
      <isSingleResponse>false</isSingleResponse>
      <recordInHistory>false</recordInHistory>
      <recordRawOutput>true</recordRawOutput>
      <recordPrimaryOutput>true</recordPrimaryOutput>
      <checkPointStep>true</checkPointStep>
      <historyCheckPointStep>true</historyCheckPointStep>
      <scriptResultStep>false</scriptResultStep>
      <userPrompt></userPrompt>
      <bindings>
        <staticBinding id="78e46bd4-1d32-4ae3-b0c4-9334ffeb11a3">
          <annotation></annotation>
          <toContextKey></toContextKey>
          <fromContextKey></fromContextKey>
          <assignFromContext>false</assignFromContext>
          <assignToContext>false</assignToContext>
          <inputType>STRING</inputType>
          <isList>false</isList>
          <required>true</required>
          <isPersisted>true</isPersisted>
          <inputSymbol>source</inputSymbol>
          <listDelimiter>,</listDelimiter>
          <value>C:\Users\VUttaravalli\dest_folder\source.txt</value>
          <record>false</record>
        </staticBinding>
        <staticBinding id="10c093dd-cb0b-41f2-a2d8-d0f68baf5144">
          <annotation></annotation>
          <toContextKey></toContextKey>
          <fromContextKey></fromContextKey>
          <assignFromContext>false</assignFromContext>
          <assignToContext>false</assignToContext>
          <inputType>STRING</inputType>
          <isList>false</isList>
          <required>false</required>
          <isPersisted>true</isPersisted>
          <inputSymbol>filter</inputSymbol>
          <listDelimiter>,</listDelimiter>
          <record>false</record>
        </staticBinding>
        <staticBinding id="a54ee3c4-9150-4937-b8a5-38422a26ada4">
          <annotation></annotation>
          <toContextKey></toContextKey>
          <fromContextKey></fromContextKey>
          <assignFromContext>false</assignFromContext>
          <assignToContext>false</assignToContext>
          <inputType>STRING</inputType>
          <isList>false</isList>
          <required>true</required>
          <isPersisted>true</isPersisted>
          <inputSymbol>store</inputSymbol>
          <listDelimiter>,</listDelimiter>
          <value>true</value>
          <record>false</record>
        </staticBinding>
        <staticBinding id="223d4135-6ccb-4166-abc1-82c808f65e8e">
          <annotation></annotation>
          <toContextKey></toContextKey>
          <fromContextKey></fromContextKey>
          <assignFromContext>false</assignFromContext>
          <assignToContext>false</assignToContext>
          <inputType>STRING</inputType>
          <isList>false</isList>
          <required>false</required>
          <isPersisted>true</isPersisted>
          <inputSymbol>user</inputSymbol>
          <listDelimiter>,</listDelimiter>
          <record>false</record>
        </staticBinding>
        <staticBinding id="753b7c39-3557-48b3-959c-46c3c6318597">
          <annotation></annotation>
          <toContextKey></toContextKey>
          <fromContextKey></fromContextKey>
          <assignFromContext>false</assignFromContext>
          <assignToContext>false</assignToContext>
          <inputType>ENCRYPTED</inputType>
          <isList>false</isList>
          <required>false</required>
          <isPersisted>true</isPersisted>
          <inputSymbol>password</inputSymbol>
          <listDelimiter>,</listDelimiter>
          <record>false</record>
        </staticBinding>
        <staticBinding id="eb4a7492-e6d9-4c6a-b7fe-903f18d25454">
          <annotation></annotation>
          <toContextKey></toContextKey>
          <fromContextKey></fromContextKey>
          <assignFromContext>false</assignFromContext>
          <assignToContext>false</assignToContext>
          <inputType>STRING</inputType>
          <isList>false</isList>
          <required>false</required>
          <isPersisted>true</isPersisted>
          <inputSymbol>delimiter</inputSymbol>
          <listDelimiter>,</listDelimiter>
          <record>false</record>
        </staticBinding>
        <staticBinding id="6cbfba36-ee1e-4962-a28e-a5287d29cd71">
          <annotation></annotation>
          <toContextKey></toContextKey>
          <fromContextKey></fromContextKey>
          <assignFromContext>false</assignFromContext>
          <assignToContext>false</assignToContext>
          <inputType>STRING</inputType>
          <isList>false</isList>
          <required>false</required>
          <isPersisted>true</isPersisted>
          <inputSymbol>eofReset</inputSymbol>
          <listDelimiter>,</listDelimiter>
          <value>true</value>
          <record>false</record>
        </staticBinding>
        <staticBinding id="36cfcc97-cda1-45f1-b462-cb4d0397820d">
          <annotation></annotation>
          <assignFromContext>false</assignFromContext>
          <assignToContext>false</assignToContext>
          <inputType>STRING</inputType>
          <isList>false</isList>
          <required>false</required>
          <isPersisted>true</isPersisted>
          <inputSymbol>characterSet</inputSymbol>
          <listDelimiter>,</listDelimiter>
          <record>false</record>
        </staticBinding>
      </bindings>
      <transitions>
        <transition id="0ace0c41-0ce4-40e6-9c77-3ff0e1d8a06c">
          <annotation></annotation>
          <name>no more lines</name>
          <command>NEXT</command>
          <linkMode>false</linkMode>
          <responseSymbol>no more lines</responseSymbol>
          <shouldHandoff>false</shouldHandoff>
          <transitionValue>0.0</transitionValue>
          <destination>
            <refId>04456b86-2436-4a08-a25d-70f481ec39b8</refId>
          </destination>
          <source>
            <refId>92ec4046-6a4c-424e-af6f-d284f1e0ab24</refId>
          </source>
          <positions>
            <point>
              <x>458.0</x>
              <y>339.0</y>
            </point>
            <point>
              <x>283.0</x>
              <y>203.0</y>
            </point>
          </positions>
          <labelPosition>
            <x>333.0</x>
            <y>0.0</y>
          </labelPosition>
        </transition>
        <transition id="b334fa28-b98d-424f-96d3-cb0814bd9131">
          <annotation></annotation>
          <name>failure</name>
          <command>NEXT</command>
          <linkMode>false</linkMode>
          <responseSymbol>failure</responseSymbol>
          <shouldHandoff>false</shouldHandoff>
          <transitionValue>0.0</transitionValue>
          <destination>
            <refId>b8bc1474-5f52-4897-a419-72e7dc2c212e</refId>
          </destination>
          <source>
            <refId>92ec4046-6a4c-424e-af6f-d284f1e0ab24</refId>
          </source>
          <positions>
            <point>
              <x>458.0</x>
              <y>339.0</y>
            </point>
            <point>
              <x>576.0</x>
              <y>539.0</y>
            </point>
          </positions>
          <labelPosition>
            <x>333.0</x>
            <y>0.0</y>
          </labelPosition>
        </transition>
        <transition id="87a1dcf2-0ff3-49ad-a993-350f1a92e5f3">
          <annotation></annotation>
          <name>more lines</name>
          <command>NEXT</command>
          <linkMode>false</linkMode>
          <responseSymbol>more lines</responseSymbol>
          <shouldHandoff>false</shouldHandoff>
          <transitionValue>0.0</transitionValue>
          <destination>
            <refId>684b247e-5297-4124-9d87-c4b0d713a82b</refId>
          </destination>
          <source>
            <refId>92ec4046-6a4c-424e-af6f-d284f1e0ab24</refId>
          </source>
          <positions>
            <point>
              <x>458.0</x>
              <y>339.0</y>
            </point>
            <point>
              <x>810.0</x>
              <y>227.0</y>
            </point>
          </positions>
          <labelPosition>
            <x>333.0</x>
            <y>0.0</y>
          </labelPosition>
        </transition>
      </transitions>
      <properties/>
      <opRef>
        <refId>f09173f6-bfb0-4d5b-8475-6c859e538bca</refId>
      </opRef>
      <assignments>
        <flowVariableAssignment id="00508d1c-53e8-49dd-b542-6e6ec193e1eb">
          <annotation></annotation>
          <name>assignment</name>
          <action>OVERWRITE</action>
          <assignmentTargetType>FLOW_VARIABLE</assignmentTargetType>
          <contextKey>returnResult</contextKey>
          <expression id="5d7eaabc-89de-4c0c-b178-e6d1686e6cb3">
            <annotation></annotation>
            <name>Result: returnResult</name>
            <fieldName>returnResult</fieldName>
            <sourceType>AVAILABLE_RESULT</sourceType>
            <filters>
              <scriptletFilter id="032d7b25-8b12-4677-b9d5-ac35dc6e4069">
                <annotation></annotation>
                <name>Scriptlet</name>
                <scriptlet id="64f06632-bf91-45e8-9ac2-53ead977ac59">
                  <annotation></annotation>
                  <name>default</name>
                  <script>if (scriptletInput !== null) {
  scriptletResult =new java.util.Date() + &quot;::&quot;+scriptletInput+&quot;\n&quot;
}</script>
                  <type>RHINO</type>
                </scriptlet>
              </scriptletFilter>
            </filters>
          </expression>
        </flowVariableAssignment>
      </assignments>
      <throttleSize>0</throttleSize>
    </step>
    <returnStep id="b8bc1474-5f52-4897-a419-72e7dc2c212e">
      <annotation></annotation>
      <name>Error : failure</name>
      <bounds>
        <x>211.0</x>
        <y>494.0</y>
      </bounds>
      <layer>-1</layer>
      <hideInbound>false</hideInbound>
      <addResultToRunContext>false</addResultToRunContext>
      <isCriticalStep>false</isCriticalStep>
      <isNonBlocking>false</isNonBlocking>
      <isParallelStep>false</isParallelStep>
      <isSingleResponse>false</isSingleResponse>
      <recordInHistory>false</recordInHistory>
      <recordRawOutput>true</recordRawOutput>
      <recordPrimaryOutput>true</recordPrimaryOutput>
      <checkPointStep>true</checkPointStep>
      <historyCheckPointStep>true</historyCheckPointStep>
      <scriptResultStep>false</scriptResultStep>
      <userPrompt></userPrompt>
      <bindings/>
      <transitions>
        <transition id="d42bf7b7-4680-4dc4-bd4f-57cfde9b9b71">
          <annotation></annotation>
          <name>return</name>
          <command>NEXT</command>
          <linkMode>false</linkMode>
          <responseSymbol>failure</responseSymbol>
          <shouldHandoff>false</shouldHandoff>
          <transitionValue>0.0</transitionValue>
          <destination>
            <refId>b8bc1474-5f52-4897-a419-72e7dc2c212e</refId>
          </destination>
          <source>
            <refId>b8bc1474-5f52-4897-a419-72e7dc2c212e</refId>
          </source>
          <positions/>
        </transition>
      </transitions>
      <properties/>
      <returnStepType>ERROR</returnStepType>
      <assignments/>
    </returnStep>
    <returnStep id="04456b86-2436-4a08-a25d-70f481ec39b8">
      <annotation></annotation>
      <name>Resolved : success</name>
      <bounds>
        <x>218.0</x>
        <y>79.0</y>
      </bounds>
      <layer>-1</layer>
      <hideInbound>false</hideInbound>
      <addResultToRunContext>false</addResultToRunContext>
      <isCriticalStep>false</isCriticalStep>
      <isNonBlocking>false</isNonBlocking>
      <isParallelStep>false</isParallelStep>
      <isSingleResponse>false</isSingleResponse>
      <recordInHistory>false</recordInHistory>
      <recordRawOutput>true</recordRawOutput>
      <recordPrimaryOutput>true</recordPrimaryOutput>
      <checkPointStep>true</checkPointStep>
      <historyCheckPointStep>true</historyCheckPointStep>
      <scriptResultStep>false</scriptResultStep>
      <userPrompt></userPrompt>
      <bindings/>
      <transitions>
        <transition id="b81e8358-49d0-4f7a-93d5-6f75b80848de">
          <annotation></annotation>
          <name>return</name>
          <command>NEXT</command>
          <linkMode>false</linkMode>
          <responseSymbol>success</responseSymbol>
          <shouldHandoff>false</shouldHandoff>
          <transitionValue>0.0</transitionValue>
          <destination>
            <refId>04456b86-2436-4a08-a25d-70f481ec39b8</refId>
          </destination>
          <source>
            <refId>04456b86-2436-4a08-a25d-70f481ec39b8</refId>
          </source>
          <positions/>
        </transition>
      </transitions>
      <properties/>
      <returnStepType>RESOLVED</returnStepType>
      <assignments/>
    </returnStep>
    <step id="7232a899-5ad2-4ed2-8cbc-de4d7f376aae">
      <annotation>4bfb64f9-27fe-4853-be7a-09269f4f9b63.7232a899-5ad2-4ed2-8cbc-de4d7f376aae.description</annotation>
      <name>Write to File</name>
      <bounds>
        <x>475.0</x>
        <y>89.0</y>
      </bounds>
      <layer>-1</layer>
      <hideInbound>false</hideInbound>
      <addResultToRunContext>false</addResultToRunContext>
      <isCriticalStep>false</isCriticalStep>
      <isNonBlocking>false</isNonBlocking>
      <isParallelStep>false</isParallelStep>
      <isSingleResponse>false</isSingleResponse>
      <recordInHistory>false</recordInHistory>
      <recordRawOutput>true</recordRawOutput>
      <recordPrimaryOutput>true</recordPrimaryOutput>
      <checkPointStep>true</checkPointStep>
      <historyCheckPointStep>true</historyCheckPointStep>
      <scriptResultStep>false</scriptResultStep>
      <userPrompt></userPrompt>
      <bindings>
        <staticBinding id="f907dc0d-314f-41bc-ba80-6bfa7ca1d705">
          <annotation></annotation>
          <toContextKey></toContextKey>
          <fromContextKey></fromContextKey>
          <assignFromContext>false</assignFromContext>
          <assignToContext>false</assignToContext>
          <inputType>STRING</inputType>
          <isList>false</isList>
          <required>true</required>
          <isPersisted>true</isPersisted>
          <inputSymbol>file</inputSymbol>
          <listDelimiter>,</listDelimiter>
          <value>C:\Users\VUttaravalli\dest_folder\dest.txt</value>
          <record>false</record>
        </staticBinding>
        <staticBinding id="4ea9628b-2a62-4f5a-877b-b1f7073e93fe">
          <annotation></annotation>
          <toContextKey></toContextKey>
          <fromContextKey>log</fromContextKey>
          <assignFromContext>true</assignFromContext>
          <assignToContext>false</assignToContext>
          <inputType>STRING</inputType>
          <isList>false</isList>
          <required>true</required>
          <isPersisted>true</isPersisted>
          <inputSymbol>contents</inputSymbol>
          <listDelimiter>,</listDelimiter>
          <value></value>
          <record>false</record>
        </staticBinding>
        <staticBinding id="78c23d71-4eb9-486f-b137-be3b052d36a4">
          <annotation></annotation>
          <toContextKey></toContextKey>
          <fromContextKey></fromContextKey>
          <assignFromContext>false</assignFromContext>
          <assignToContext>false</assignToContext>
          <inputType>STRING</inputType>
          <isList>false</isList>
          <required>false</required>
          <isPersisted>true</isPersisted>
          <inputSymbol>user</inputSymbol>
          <listDelimiter>,</listDelimiter>
          <record>false</record>
        </staticBinding>
        <staticBinding id="9ecf2c7f-4e9f-455f-b9a8-67dab585cd0c">
          <annotation></annotation>
          <toContextKey></toContextKey>
          <fromContextKey></fromContextKey>
          <assignFromContext>false</assignFromContext>
          <assignToContext>false</assignToContext>
          <inputType>ENCRYPTED</inputType>
          <isList>false</isList>
          <required>false</required>
          <isPersisted>true</isPersisted>
          <inputSymbol>password</inputSymbol>
          <listDelimiter>,</listDelimiter>
          <record>false</record>
        </staticBinding>
        <staticBinding id="15f44b94-b492-4d53-8459-f3eee91aca28">
          <annotation></annotation>
          <assignFromContext>false</assignFromContext>
          <assignToContext>false</assignToContext>
          <inputType>STRING</inputType>
          <isList>false</isList>
          <required>false</required>
          <isPersisted>true</isPersisted>
          <inputSymbol>delimiter</inputSymbol>
          <listDelimiter>,</listDelimiter>
          <record>false</record>
        </staticBinding>
        <staticBinding id="07995c36-0ecf-4454-8287-a8cdfab75c76">
          <annotation></annotation>
          <assignFromContext>false</assignFromContext>
          <assignToContext>false</assignToContext>
          <inputType>STRING</inputType>
          <isList>false</isList>
          <required>false</required>
          <isPersisted>true</isPersisted>
          <inputSymbol>overwrite</inputSymbol>
          <listDelimiter>,</listDelimiter>
          <value>false</value>
          <record>false</record>
        </staticBinding>
        <staticBinding id="16d00f76-05bb-4c1c-a827-ac5a019863ff">
          <annotation></annotation>
          <assignFromContext>false</assignFromContext>
          <assignToContext>false</assignToContext>
          <inputType>STRING</inputType>
          <isList>false</isList>
          <required>false</required>
          <isPersisted>true</isPersisted>
          <inputSymbol>characterSet</inputSymbol>
          <listDelimiter>,</listDelimiter>
          <record>false</record>
        </staticBinding>
      </bindings>
      <transitions>
        <transition id="6e298092-7a6a-44ad-84e1-f24ba3d6fa0a">
          <annotation></annotation>
          <name>failure</name>
          <command>NEXT</command>
          <linkMode>false</linkMode>
          <responseSymbol>failure</responseSymbol>
          <shouldHandoff>false</shouldHandoff>
          <transitionValue>0.0</transitionValue>
          <destination>
            <refId>04456b86-2436-4a08-a25d-70f481ec39b8</refId>
          </destination>
          <source>
            <refId>7232a899-5ad2-4ed2-8cbc-de4d7f376aae</refId>
          </source>
          <positions>
            <point>
              <x>948.0</x>
              <y>299.0</y>
            </point>
            <point>
              <x>283.0</x>
              <y>203.0</y>
            </point>
          </positions>
          <labelPosition>
            <x>333.0</x>
            <y>0.0</y>
          </labelPosition>
        </transition>
        <transition id="882bd553-2a3d-42be-8dc0-8474b2401c7d">
          <annotation></annotation>
          <name>success</name>
          <command>NEXT</command>
          <linkMode>false</linkMode>
          <responseSymbol>success</responseSymbol>
          <shouldHandoff>false</shouldHandoff>
          <transitionValue>0.0</transitionValue>
          <destination>
            <refId>92ec4046-6a4c-424e-af6f-d284f1e0ab24</refId>
          </destination>
          <source>
            <refId>7232a899-5ad2-4ed2-8cbc-de4d7f376aae</refId>
          </source>
          <positions>
            <point>
              <x>525.0</x>
              <y>123.0</y>
            </point>
            <point>
              <x>263.0</x>
              <y>337.0</y>
            </point>
          </positions>
          <labelPosition>
            <x>333.0</x>
            <y>0.0</y>
          </labelPosition>
        </transition>
      </transitions>
      <properties/>
      <opRef>
        <refId>53d04fe8-927b-405e-a1a7-5c5fd3110a11</refId>
      </opRef>
      <assignments/>
      <throttleSize>0</throttleSize>
    </step>
    <step id="684b247e-5297-4124-9d87-c4b0d713a82b">
      <annotation>4bfb64f9-27fe-4853-be7a-09269f4f9b63.684b247e-5297-4124-9d87-c4b0d713a82b.description</annotation>
      <name>date_add</name>
      <bounds>
        <x>472.0</x>
        <y>295.0</y>
      </bounds>
      <layer>-1</layer>
      <hideInbound>false</hideInbound>
      <addResultToRunContext>false</addResultToRunContext>
      <isCriticalStep>false</isCriticalStep>
      <isNonBlocking>false</isNonBlocking>
      <isParallelStep>false</isParallelStep>
      <isSingleResponse>false</isSingleResponse>
      <recordInHistory>false</recordInHistory>
      <recordRawOutput>true</recordRawOutput>