<?xml version="1.0" encoding="UTF-8"?>
<flow id="fffefec5-2d5e-4e48-8c69-cfa7b660ff58">
  <descriptionCdata><![CDATA[fffefec5-2d5e-4e48-8c69-cfa7b660ff58.2430cb31-3ef2-4184-948d-c9827ec790f1.description=<pre>\n\nDisplays a message to the user.\n\nInputs\:\n  message - The message text to display\n  title - The title on the message window. Defaults to "Status message".\n\nResponses\:\n  Always returns success.\n\nExamples\:\n  In order to display the message "Finished" to the user, go to the \n  detail screen for the input named "message" and change the Otherwise option\n  from Prompt User to Use Constant.  Then enter the text "Finished" into the\n  Constant Value field.\n\n  References to flow variables in the Contant Value field are expanded so that\n  the text may be dynamic.  Flow variable references are of the form\n  ${variable}.  For example, the text\:\n     ${count} systems were modified \n  could be used to display a message about the number of systems that were\n  repaired, whose value is in the flow variable "count".\n\n  When the message is displayed, it will properly render any embedded html\n  tags, which permits creating messages with more advanced formatting.  For \n  example to display a message in italics you could use\:\n    <i>This is important</i>\n  or to display a message in red\:\n    <i>This is <span style\="color\: red">really </span> important</i>\n\n  You can create messages that contain multiple lines by entering a multiple\n  line message in the Constant Value field, or by using HTML <BR> tags for line\n  breaks.  Note that \\n characters are displayed literally and are not used for\n  creating multiple lines.\n\n</pre>\n
fffefec5-2d5e-4e48-8c69-cfa7b660ff58.3aac5c0d-6d80-41af-8924-71f8e14f59f1.description=<pre>\n\nDisplays a message to the user.\n\nInputs\:\n  message - The message text to display\n  title - The title on the message window. Defaults to "Status message".\n\nResponses\:\n  Always returns success.\n\nExamples\:\n  In order to display the message "Finished" to the user, go to the \n  detail screen for the input named "message" and change the Otherwise option\n  from Prompt User to Use Constant.  Then enter the text "Finished" into the\n  Constant Value field.\n\n  References to flow variables in the Contant Value field are expanded so that\n  the text may be dynamic.  Flow variable references are of the form\n  ${variable}.  For example, the text\:\n     ${count} systems were modified \n  could be used to display a message about the number of systems that were\n  repaired, whose value is in the flow variable "count".\n\n  When the message is displayed, it will properly render any embedded html\n  tags, which permits creating messages with more advanced formatting.  For \n  example to display a message in italics you could use\:\n    <i>This is important</i>\n  or to display a message in red\:\n    <i>This is <span style\="color\: red">really </span> important</i>\n\n  You can create messages that contain multiple lines by entering a multiple\n  line message in the Constant Value field, or by using HTML <BR> tags for line\n  breaks.  Note that \\n characters are displayed literally and are not used for\n  creating multiple lines.\n\n</pre>\n
fffefec5-2d5e-4e48-8c69-cfa7b660ff58.863b26a5-54f2-44ce-b4ea-ce7a70a7b101.prompt=Target host name\:
fffefec5-2d5e-4e48-8c69-cfa7b660ff58.9c917cce-973c-48f4-9ed8-ab62f45190e4.description=<pre>\nRuns a Ping command either locally or remotely depending on the specified protocol. Credentials and other inputs (remoteOS, hostname, username, password, keyFile etc) are required if the command must be run from a remote host. The Telnet protocol also requires inputs for usernamePrompt and passwordPrompt. \n\nInputs\:\n    hostname - Hostname or IP address of the host computer where the Ping command will be executed.\n    username - A username to authenticate to the host computer. \n    password - The password for the user account.\n    targetHost - Hostname or IP address of the target host computer.\n    protocol  - The protocol used to run the command.\nValues\: local, ssh, Telnet\n    packetSize - The size of the ping packet.\n    packetCount - The number of ping packets to send.\n    remoteOS - The operating system of the host computer (WINDOWS, LINUX, SOLARIS only are supported), if Ping is running on a remote host.\n    usernamePrompt - The username prompt seen while using Telnet protocol. This input is required when Telnet protocol is used. For example, login\:.\n    passwordPrompt - The password prompt seen while using Telnet protocol. This input is required when Telnet protocol is used. For example, password\:.\n    keyFile - The path to the private key file for remote host. The path should be absolute.\n    timeout - The timeout in miliseconds for the Ping operation. Default is 90000.-A inet6\n    ipVersion - IP version forced to the ping command executed on the target host. For Windows -4 or -6 parameters will be added.On Linux will be used ping or ping6. For Solaris -A inet or -A inet6 parameters will be added. For empty string the operation will decide what format to use if targetHost is an ip literal; if targetHost is given as a hostname default 'ping' command will be used on each operating system.\nValues\: 4, 6, '' (empty string without quotes).\nDefault\: '' (empty string without quotes).\n\nResponses\:\n    success - The command executed successfully.\n    failure - The command could not be executed or had a problem during execution.\n\nReturns\:\n    packetsSent - The number of packets sent.\n    packetsReceived - The number of packets received.\n    percentagePacketsLost - The percentage of packets lost.\n    transmissionTimeMin - Minimum time taken for transmitting the packet.\n    transmissionTimeMax - Maximum time taken for transmitting the packet.\n    transmissionTimeAvg - Average time taken for transmitting the packet.\n    returnResult - Raw output of the command.\n    returnCode - Return code of the executed command.\n    error - The STDERR of the command.\n</pre>
]]></descriptionCdata>
  <annotation></annotation>
  <name>ping_flow</name>
  <categories/>
  <inputs/>
  <possibleResponses>
    <opResponse id="54e78c8a-bf1f-4a66-8aad-48e1654668b2">
      <annotation></annotation>
      <name>success</name>
      <isDefault>true</isDefault>
      <onFailure>false</onFailure>
      <type>RESOLVED</type>
      <matchRules/>
    </opResponse>
    <opResponse id="4adb35a2-7748-4f31-9cf6-bbc39cd2857a">
      <annotation></annotation>
      <name>failure</name>
      <isDefault>false</isDefault>
      <onFailure>true</onFailure>
      <type>ERROR</type>
      <matchRules/>
    </opResponse>
  </possibleResponses>
  <availableResultExpressions/>
  <resultExpression id="4440081c-f6e6-4c01-8c01-ab3d22a66f7f">
    <annotation></annotation>
    <name>FailureMessage</name>
    <fieldName>FailureMessage</fieldName>
    <sourceType>RAWRESULT</sourceType>
    <filters/>
  </resultExpression>
  <iconSpec id="0283b8db-2f8d-464d-bb8b-961d366eaf56">
    <baseIcon>flow.png</baseIcon>
    <basePath>System</basePath>
    <readOnly>false</readOnly>
    <layers/>
  </iconSpec>
  <callouts/>
  <checkPointFlow>true</checkPointFlow>
  <compatibleRuntimeContext>false</compatibleRuntimeContext>
  <historyCheckPointFlow>true</historyCheckPointFlow>
  <steps>
    <step id="9c917cce-973c-48f4-9ed8-ab62f45190e4">
      <annotation>fffefec5-2d5e-4e48-8c69-cfa7b660ff58.9c917cce-973c-48f4-9ed8-ab62f45190e4.description</annotation>
      <name>Ping</name>
      <bounds>
        <x>914.0</x>
        <y>226.0</y>
      </bounds>
      <layer>-1</layer>
      <hideInbound>false</hideInbound>
      <addResultToRunContext>false</addResultToRunContext>
      <isCriticalStep>false</isCriticalStep>
      <isNonBlocking>false</isNonBlocking>
      <isParallelStep>false</isParallelStep>
      <isSingleResponse>false</isSingleResponse>
      <recordInHistory>false</recordInHistory>
      <recordRawOutput>true</recordRawOutput>
      <recordPrimaryOutput>true</recordPrimaryOutput>
      <checkPointStep>true</checkPointStep>
      <historyCheckPointStep>true</historyCheckPointStep>
      <scriptResultStep>false</scriptResultStep>
      <userPrompt></userPrompt>
      <bindings>
        <staticBinding id="3a9b8821-d45d-45cd-8522-480dd2ef8e5c">
          <annotation></annotation>
          <toContextKey></toContextKey>
          <fromContextKey></fromContextKey>
          <assignFromContext>false</assignFromContext>
          <assignToContext>false</assignToContext>
          <inputType>STRING</inputType>
          <isList>false</isList>
          <required>false</required>
          <isPersisted>true</isPersisted>
          <inputSymbol>hostname</inputSymbol>
          <listDelimiter>,</listDelimiter>
          <record>false</record>
        </staticBinding>
        <staticBinding id="6db4371b-39bc-463d-8d5f-36fcc15b4965">
          <annotation></annotation>
          <toContextKey></toContextKey>
          <fromContextKey></fromContextKey>
          <assignFromContext>false</assignFromContext>
          <assignToContext>false</assignToContext>
          <inputType>STRING</inputType>
          <isList>false</isList>
          <required>false</required>
          <isPersisted>true</isPersisted>
          <inputSymbol>username</inputSymbol>
          <listDelimiter>,</listDelimiter>
          <record>false</record>
        </staticBinding>
        <staticBinding id="8a158975-284f-4d97-91fc-92916659bacb">
          <annotation></annotation>
          <toContextKey></toContextKey>
          <fromContextKey></fromContextKey>
          <assignFromContext>false</assignFromContext>
          <assignToContext>false</assignToContext>
          <inputType>ENCRYPTED</inputType>
          <isList>false</isList>
          <required>false</required>
          <isPersisted>true</isPersisted>
          <inputSymbol>password</inputSymbol>
          <listDelimiter>,</listDelimiter>
          <record>false</record>
        </staticBinding>
        <userInputBinding id="863b26a5-54f2-44ce-b4ea-ce7a70a7b101">
          <annotation></annotation>
          <toContextKey></toContextKey>
          <fromContextKey></fromContextKey>
          <assignFromContext>false</assignFromContext>
          <assignToContext>false</assignToContext>
          <inputType>STRING</inputType>
          <isList>false</isList>
          <required>true</required>
          <isPersisted>true</isPersisted>
          <inputSymbol>targetHost</inputSymbol>
          <listDelimiter>,</listDelimiter>
          <record>false</record>
          <prompt>fffefec5-2d5e-4e48-8c69-cfa7b660ff58.863b26a5-54f2-44ce-b4ea-ce7a70a7b101.prompt</prompt>
          <isMultiSelect>false</isMultiSelect>
          <sourceDelimiter>|</sourceDelimiter>
        </userInputBinding>
        <staticBinding id="33f76cda-cae5-4fdc-b37d-a183fa7a4b6a">
          <annotation></annotation>
          <toContextKey></toContextKey>
          <fromContextKey></fromContextKey>
          <assignFromContext>false</assignFromContext>
          <assignToContext>false</assignToContext>
          <inputType>STRING</inputType>
          <isList>false</isList>
          <required>true</required>
          <isPersisted>true</isPersisted>
          <inputSymbol>protocol</inputSymbol>
          <listDelimiter>,</listDelimiter>
          <value>local</value>
          <record>false</record>
        </staticBinding>
        <staticBinding id="9b40a261-9019-4c82-8979-ab8cb1c2d16e">
          <annotation></annotation>
          <toContextKey></toContextKey>
          <fromContextKey></fromContextKey>
          <assignFromContext>false</assignFromContext>
          <assignToContext>false</assignToContext>
          <inputType>STRING</inputType>
          <isList>false</isList>
          <required>false</required>
          <isPersisted>true</isPersisted>
          <inputSymbol>packetCount</inputSymbol>
          <listDelimiter>,</listDelimiter>
          <record>false</record>
        </staticBinding>
        <staticBinding id="2e53e67c-b306-429a-a45d-a962bf0078e2">
          <annotation></annotation>
          <toContextKey></toContextKey>
          <fromContextKey></fromContextKey>
          <assignFromContext>false</assignFromContext>
          <assignToContext>false</assignToContext>
          <inputType>STRING</inputType>
          <isList>false</isList>
          <required>false</required>
          <isPersisted>true</isPersisted>
          <inputSymbol>packetSize</inputSymbol>
          <listDelimiter>,</listDelimiter>
          <record>false</record>
        </staticBinding>
        <staticBinding id="e5bb8fad-2e3d-4435-b880-80a529508ffe">
          <annotation></annotation>
          <toContextKey></toContextKey>
          <fromContextKey></fromContextKey>
          <assignFromContext>false</assignFromContext>
          <assignToContext>false</assignToContext>
          <inputType>STRING</inputType>
          <isList>false</isList>
          <required>false</required>
          <isPersisted>true</isPersisted>
          <inputSymbol>remoteOS</inputSymbol>
          <listDelimiter>,</listDelimiter>
          <record>false</record>
        </staticBinding>
        <staticBinding id="ce876711-c498-4cd5-af2f-bfaf109dabb4">
          <annotation></annotation>
          <toContextKey></toContextKey>
          <fromContextKey></fromContextKey>
          <assignFromContext>false</assignFromContext>
          <assignToContext>false</assignToContext>
          <inputType>STRING</inputType>
          <isList>false</isList>
          <required>false</required>
          <isPersisted>true</isPersisted>
          <inputSymbol>usernamePrompt</inputSymbol>
          <listDelimiter>,</listDelimiter>
          <record>false</record>
        </staticBinding>
        <staticBinding id="b5b4e7b9-2328-42bd-9525-f130a6def32b">
          <annotation></annotation>
          <toContextKey></toContextKey>
          <fromContextKey></fromContextKey>
          <assignFromContext>false</assignFromContext>
          <assignToContext>false</assignToContext>
          <inputType>STRING</inputType>
          <isList>false</isList>
          <required>false</required>
          <isPersisted>true</isPersisted>
          <inputSymbol>passwordPrompt</inputSymbol>
          <listDelimiter>,</listDelimiter>
          <record>false</record>
        </staticBinding>
        <staticBinding id="61647400-a4d1-4f49-8761-2cfbbe3400ef">
          <annotation></annotation>
          <toContextKey></toContextKey>
          <fromContextKey></fromContextKey>
          <assignFromContext>false</assignFromContext>
          <assignToContext>false</assignToContext>
          <inputType>STRING</inputType>
          <isList>false</isList>
          <required>false</required>
          <isPersisted>true</isPersisted>
          <inputSymbol>keyFile</inputSymbol>
          <listDelimiter>,</listDelimiter>
          <record>false</record>
        </staticBinding>
        <staticBinding id="83f12e30-ecce-4a5f-9e79-f23c90397a66">
          <annotation></annotation>
          <assignFromContext>false</assignFromContext>
          <assignToContext>false</assignToContext>
          <inputType>STRING</inputType>
          <isList>false</isList>
          <required>false</required>
          <isPersisted>true</isPersisted>
          <inputSymbol>timeout</inputSymbol>
          <listDelimiter>,</listDelimiter>
          <record>false</record>
        </staticBinding>
        <staticBinding id="ab26c27a-159f-44f0-b0c6-e638e750d002">
          <annotation></annotation>
          <assignFromContext>false</assignFromContext>
          <assignToContext>false</assignToContext>
          <inputType>STRING</inputType>
          <isList>false</isList>
          <required>false</required>
          <isPersisted>true</isPersisted>
          <inputSymbol>ipVersion</inputSymbol>
          <listDelimiter>,</listDelimiter>
          <value>4</value>
          <record>false</record>
        </staticBinding>
      </bindings>
      <transitions>
        <transition id="7920a22c-e481-44e9-9be1-ffc9e1387acf">
          <annotation></annotation>
          <name>success</name>
          <command>NEXT</command>
          <linkMode>false</linkMode>
          <responseSymbol>success</responseSymbol>
          <shouldHandoff>false</shouldHandoff>
          <transitionValue>0.0</transitionValue>
          <destination>
            <refId>3aac5c0d-6d80-41af-8924-71f8e14f59f1</refId>
          </destination>
          <source>
            <refId>9c917cce-973c-48f4-9ed8-ab62f45190e4</refId>
          </source>
          <positions>
            <point>
              <x>1057.0</x>
              <y>215.0</y>
            </point>
            <point>
              <x>787.0</x>
              <y>277.0</y>
            </point>
          </positions>
          <labelPosition>
            <x>333.0</x>
            <y>0.0</y>
          </labelPosition>
        </transition>
        <transition id="166e5a8e-6ea8-4446-bbbf-f2e77b9e844b">
          <annotation></annotation>
          <name>failure</name>
          <command>NEXT</command>
          <linkMode>false</linkMode>
          <responseSymbol>failure</responseSymbol>
          <shouldHandoff>false</shouldHandoff>
          <transitionValue>0.0</transitionValue>
          <destination>
            <refId>2430cb31-3ef2-4184-948d-c9827ec790f1</refId>
          </destination>
          <source>
            <refId>9c917cce-973c-48f4-9ed8-ab62f45190e4</refId>
          </source>
          <positions>
            <point>
              <x>1057.0</x>
              <y>215.0</y>
            </point>
            <point>
              <x>1250.0</x>
              <y>364.0</y>
            </point>
          </positions>
          <labelPosition>
            <x>333.0</x>
            <y>0.0</y>
          </labelPosition>
        </transition>
      </transitions>
      <properties/>
      <opRef>
        <refId>56c181bc-a763-435c-9561-4ba29d045c86</refId>
      </opRef>
      <assignments>
        <flowVariableAssignment id="ac698ff5-33b8-4709-b4cc-91c000688a10">
          <annotation></annotation>
          <name>assignment</name>
          <action>OVERWRITE</action>
          <assignmentTargetType>FLOW_VARIABLE</assignmentTargetType>
          <contextKey>returnResult</contextKey>
          <expression id="9eaa7367-f90a-4254-8a32-939531771bce">
            <annotation></annotation>
            <name>Result Field: returnResult</name>
            <fieldName>returnResult</fieldName>
            <sourceType>RAWRESULT</sourceType>
            <filters/>
          </expression>
        </flowVariableAssignment>
      </assignments>
      <throttleSize>0</throttleSize>
    </step>
    <returnStep id="5761c878-ca0e-42e3-91d4-3e8433c33714">
      <annotation></annotation>
      <name>Resolved : success</name>
      <bounds>
        <x>590.0</x>
        <y>233.0</y>
      </bounds>
      <layer>-1</layer>
      <hideInbound>false</hideInbound>
      <addResultToRunContext>false</addResultToRunContext>
      <isCriticalStep>false</isCriticalStep>
      <isNonBlocking>false</isNonBlocking>
      <isParallelStep>false</isParallelStep>
      <isSingleResponse>false</isSingleResponse>
      <recordInHistory>false</recordInHistory>
      <recordRawOutput>true</recordRawOutput>
      <recordPrimaryOutput>true</recordPrimaryOutput>
      <checkPointStep>true</checkPointStep>
      <historyCheckPointStep>true</historyCheckPointStep>
      <scriptResultStep>false</scriptResultStep>
      <userPrompt></userPrompt>
      <bindings/>
      <transitions>
        <transition id="7db1bcae-b9b8-4872-ae51-7d859d7a210e">
          <annotation></annotation>
          <name>return</name>
          <command>NEXT</command>
          <linkMode>false</linkMode>
          <responseSymbol>success</responseSymbol>
          <shouldHandoff>false</shouldHandoff>
          <transitionValue>0.0</transitionValue>
          <destination>
            <refId>5761c878-ca0e-42e3-91d4-3e8433c33714</refId>
          </destination>
          <source>
            <refId>5761c878-ca0e-42e3-91d4-3e8433c33714</refId>
          </source>
          <positions/>
        </transition>
      </transitions>
      <properties/>
      <returnStepType>RESOLVED</returnStepType>
      <assignments/>
    </returnStep>
    <returnStep id="3f65e64b-9980-46c5-b217-0384649c0eeb">
      <annotation></annotation>
      <name>Error : failure</name>
      <bounds>
        <x>1315.0</x>
        <y>220.0</y>
      </bounds>
      <layer>-1</layer>
      <hideInbound>false</hideInbound>
      <addResultToRunContext>false</addResultToRunContext>
      <isCriticalStep>false</isCriticalStep>
      <isNonBlocking>false</isNonBlocking>
      <isParallelStep>false</isParallelStep>
      <isSingleResponse>false</isSingleResponse>
      <recordInHistory>false</recordInHistory>
      <recordRawOutput>true</recordRawOutput>
      <recordPrimaryOutput>true</recordPrimaryOutput>
      <checkPointStep>true</checkPointStep>
      <historyCheckPointStep>true</historyCheckPointStep>
      <scriptResultStep>false</scriptResultStep>
      <userPrompt></userPrompt>
      <bindings/>
      <transitions>
        <transition id="bdf89648-c1a6-4a87-b415-2b56964d554a">
          <annotation></annotation>
          <name>return</name>
          <command>NEXT</command>
          <linkMode>false</linkMode>
          <responseSymbol>failure</responseSymbol>
          <shouldHandoff>false</shouldHandoff>
          <transitionValue>0.0</transitionValue>
          <destination>
            <refId>3f65e64b-9980-46c5-b217-0384649c0eeb</refId>
          </destination>
          <source>
            <refId>3f65e64b-9980-46c5-b217-0384649c0eeb</refId>
          </source>
          <positions/>
        </transition>
      </transitions>
      <properties/>
      <returnStepType>ERROR</returnStepType>
      <assignments/>
    </returnStep>
    <step id="3aac5c0d-6d80-41af-8924-71f8e14f59f1">
      <annotation>fffefec5-2d5e-4e48-8c69-cfa7b660ff58.3aac5c0d-6d80-41af-8924-71f8e14f59f1.description</annotation>
      <name>Display Message</name>
      <bounds>
        <x>737.0</x>
        <y>229.0</y>
      </bounds>
      <layer>-1</layer>
      <hideInbound>false</hideInbound>
      <addResultToRunContext>false</addResultToRunContext>
      <isCriticalStep>false</isCriticalStep>
      <isNonBlocking>false</isNonBlocking>
      <isParallelStep>false</isParallelStep>
      <isSingleResponse>false</isSingleResponse>
      <recordInHistory>false</recordInHistory>
      <recordRawOutput>true</recordRawOutput>
      <recordPrimaryOutput>true</recordPrimaryOutput>
      <checkPointStep>true</checkPointStep>
      <historyCheckPointStep>true</historyCheckPointStep>
      <scriptResultStep>false</scriptResultStep>
      <userPrompt></userPrompt>
      <bindings>
        <staticBinding id="487ee5ec-1936-4cb7-940f-5ea041e4dd57">
          <annotation></annotation>
          <assignFromContext>false</assignFromContext>
          <assignToContext>false</assignToContext>
          <inputType>STRING</inputType>
          <isList>false</isList>
          <required>true</required>
          <isPersisted>true</isPersisted>
          <inputSymbol>message</inputSymbol>
          <listDelimiter>,</listDelimiter>
          <value>Server is reachable.</value>
          <record>false</record>
        </staticBinding>
        <staticBinding id="4081d89c-4518-43f1-b91e-01b631f27736">
          <annotation></annotation>
          <assignFromContext>false</assignFromContext>
          <assignToContext>false</assignToContext>
          <inputType>STRING</inputType>
          <isList>false</isList>
          <required>false</required>
          <isPersisted>true</isPersisted>
          <inputSymbol>title</inputSymbol>
          <listDelimiter>,</listDelimiter>
          <value>Status message</value>
          <record>false</record>
        </staticBinding>
      </bindings>
      <transitions>
        <transition id="511fc33a-105f-4faf-88a6-28892c63324d">
          <annotation></annotation>
          <name>success</name>
          <command>NEXT</command>
          <linkMode>false</linkMode>
          <responseSymbol>success</responseSymbol>
          <shouldHandoff>false</shouldHandoff>
          <transitionValue>0.0</transitionValue>
          <destination>
            <refId>5761c878-ca0e-42e3-91d4-3e8433c33714</refId>
          </destination>
          <source>
            <refId>3aac5c0d-6d80-41af-8924-71f8e14f59f1</refId>
          </source>
          <positions>
            <point>
              <x>787.0</x>
              <y>277.0</y>
            </point>
            <point>
              <x>643.0</x>
              <y>140.0</y>
            </point>
          </positions>
          <labelPosition>
            <x>333.0</x>
            <y>0.0</y>
          </labelPosition>
        </transition>
      </transitions>
      <properties/>
      <opRef>
        <refId>434e6fa2-26bc-4e84-9e1f-0aa6946cf920</refId>
      </opRef>
      <assignments/>
      <throttleSize>0</throttleSize>
    </step>
    <step id="2430cb31-3ef2-4184-948d-c9827ec790f1">
      <annotation>fffefec5-2d5e-4e48-8c69-cfa7b660ff58.2430cb31-3ef2-4184-948d-c9827ec790f1.description</annotation>
      <name>Display Message</name>
      <bounds>
        <x>1098.0</x>
        <y>222.0</y>
      </bounds>
      <layer>-1</layer>
      <hideInbound>false</hideInbound>
      <addResultToRunContext>false</addResultToRunContext>
      <isCriticalStep>false</isCriticalStep>
      <isNonBlocking>false</isNonBlocking>
      <isParallelStep>false</isParallelStep>
      <isSingleResponse>false</isSingleResponse>
      <recordInHistory>false</recordInHistory>
      <recordRawOutput>true</recordRawOutput>
      <recordPrimaryOutput>true</recordPrimaryOutput>
      <checkPointStep>true</checkPointStep>
      <historyCheckPointStep>true</historyCheckPointStep>
      <scriptResultStep>false</scriptResultStep>
      <userPrompt></userPrompt>
      <bindings>
        <staticBinding id="97e0b69d-f84a-4e8f-8ac1-778d60cd639b">
          <annotation></annotation>
          <assignFromContext>false</assignFromContext>
          <assignToContext>false</assignToContext>
          <inputType>STRING</inputType>
          <isList>false</isList>
          <required>true</required>
          <isPersisted>true</isPersisted>
          <inputSymbol>message</inputSymbol>
          <listDelimiter>,</listDelimiter>
          <value>Server is reachable.</value>
          <record>false</record>
        </staticBinding>
        <staticBinding id="8ff50cd2-2e2f-4ce3-a47a-fb50c751ae48">
          <annotation></annotation>
          <assignFromContext>false</assignFromContext>
          <assignToContext>false</assignToContext>
          <inputType>STRING</inputType>
          <isList>false</isList>
          <required>false</required>
          <isPersisted>true</isPersisted>
          <inputSymbol>title</inputSymbol>
          <listDelimiter>,</listDelimiter>
          <value>Status message</value>
          <record>false</record>
        </staticBinding>
      </bindings>
      <transitions>
        <transition id="6b093a48-e500-48d6-955d-2c23f1126586">
          <annotation></annotation>
          <name>success</name>
          <command>NEXT</command>
          <linkMode>false</linkMode>
          <responseSymbol>success</responseSymbol>
          <shouldHandoff>false</shouldHandoff>
          <transitionValue>0.0</transitionValue>
          <destination>
            <refId>3f65e64b-9980-46c5-b217-0384649c0eeb</refId>
          </destination>
          <source>
            <refId>2430cb31-3ef2-4184-948d-c9827ec790f1</refId>
          </source>
          <positions>
            <point>
              <x>1250.0</x>
              <y>364.0</y>
            </point>
            <point>
              <x>1405.0</x>
              <y>151.0</y>
            </point>
          </positions>
          <labelPosition>
            <x>333.0</x>
            <y>0.0</y>
          </labelPosition>
        </transition>
      </transitions>
      <properties/>
      <opRef>
        <refId>434e6fa2-26bc-4e84-9e1f-0aa6946cf920</refId>
      </opRef>
      <assignments/>
      <throttleSize>0</throttleSize>
    </step>
  </steps>
  <startSteps>9c917cce-973c-48f4-9ed8-ab62f45190e4</startSteps>
</flow>