<?xml version="1.0" encoding="UTF-8"?>
<flow id="ccaa25b6-ac44-4292-ac61-08c5f5b91c3a">
  <descriptionCdata><![CDATA[ccaa25b6-ac44-4292-ac61-08c5f5b91c3a.1629fadc-64a2-4f71-83f2-d8fb3efba143.description=This operation runs a SQL command.\n\nInputs\:\n    DBServerName - The hostname or ip address of the database server.\n    DbType - The type of database to connect to. \nValid values\: Oracle, MSSQL, Sybase, Netcool, DB2, PostgreSQL and Custom.\nDefault value\: Oracle\n    Username - The username to use when connecting to the database.\n    Password -  The password to use when connecting to the database.\n    instance - The name instance (for MSSQL Server). Leave it blank for default instance.\n    DbPort - The port to connect to.\nDefault values\: Oracle\: 1521, MSSQL\: 1433, Sybase\: 5000, Netcool\: 4100, DB2\: 50000, PostgreSQL\: 5432.\n    Database - The name of the database.\n    authenticationType - The type of authentication used to access the database (applicable only to MSSQL type). \nValid values\: sql, windows (for MSSQL)\nDefault value\: sql\n    dbClass - The classname of the JDBC driver to use.\n    dbURL - The url required to load up the driver and make your connection.\n    ssl - Specifies if the communication will be encrypted using Secure Sockets Layer (SSL) (only applicable for PostgreSQL).\nValid values\: true, false\n    SSLMode - Specifies the different levels of protection SSL can provide. If the ssl input is set to true, SSLMode must be specified, otherwise it will be ignored (only applicable for PostgreSQL).\nValid values\: allow, prefer, require, verify-ca, verify-full\n    SSLCert - Specifies the full path for the certificate file (only applicable for PostgreSQL).\n    SSLKey - Specifies the full path for the key file which must be in DER format. Check the notes section for more details about conversion to DER format (only applicable for PostgreSQL).\n    SSLRootCert - Specifies the full path of the SSL root certificate (only applicable for PostgreSQL).\n    Command - The command to execute.\n    timeout - Seconds to wait before timing out the SQL command execution. When the default value is used, there is no limit on the amount of time allowed for a running command to complete.\nDefault value\: 0\n    databasePoolingProperties - Properties for database pooling configuration. This parameter replaces the databasePooling.properties file from 9x version (you may copy-paste the file content here). Pooling is disabled by default. For more details check the /Library/Operations/Database/JDBC folder description.\nExample\: db.pooling.enable\=true\n    resultSetType - the result set type. See JDBC folder description for more details.\nValid values\: TYPE_FORWARD_ONLY, TYPE_SCROLL_INSENSITIVE,TYPE_SCROLL_SENSITIVE.\nDefault value\: TYPE_FORWARD_ONLY\n    resultSetConcurrency - the result set concurrency. See JDBC folder description for more details.\nValid values\: CONCUR_READ_ONLY, CONCUR_UPDATABLE\nDefault value\: CONCUR_READ_ONLY\n\nResults\:\n    returnResult - This is the primary output. It contains the "Command completed successfully" message if the operation succeeded, or a failure message otherwise.\n    outputText - The return result of SQL command.\n    updateCount - The update count of the command executed.\n\nResponses\:\n    success - The command was executed successfully.\n    failure - Failed to execute the command.\n\nNotes\:\n1. Check the JDBC folder description for details on how to load database connectors.\n2. In case of using subprograms like (GET_LINE, GET_LINES, NEW_LINE, PUT, PUT_LUNE) from DBMS_OUTPUT package, the DBMS_OUTPUT.ENABLE(<buffer_size>) declaration should be used before of these calls.\n3. Use the 'Command' input with caution as it can expose the target system to security risks. By exposing the 'Command' input as a prompt to the user, it will enable the user to execute any SQL command on the target system taking into account the permissions of the credentials given as inputs.\n4. SSL encryption only works for PostgreSQL.\n5. Database pooling is not supported when "ssl"\=true (only applicable for PostgreSQL).\n6. A PEM key can be converted to DER format using the openssl command\: openssl pkcs8 -topk8 -inform PEM -in my.key -outform DER -out my.key.der.\n7. For information on how to generate certificates, how to setup the postgress server to accept SSL connections and supported SSL modes please refer to the PostgreSQL official documentation.\n8. Steps for creating the SSL certificates can be found in the CP's release notes, under the "Use" section. \n\nNote\:\n    Check the JDBC folder description for details on how to load database connectors.
ccaa25b6-ac44-4292-ac61-08c5f5b91c3a.2d9341b5-91a0-48f9-aca4-c0d068817788.description=<pre>\n\nDisplays a message to the user.\n\nInputs\:\n  message - The message text to display\n  title - The title on the message window. Defaults to "Status message".\n\nResponses\:\n  Always returns success.\n\nExamples\:\n  In order to display the message "Finished" to the user, go to the \n  detail screen for the input named "message" and change the Otherwise option\n  from Prompt User to Use Constant.  Then enter the text "Finished" into the\n  Constant Value field.\n\n  References to flow variables in the Contant Value field are expanded so that\n  the text may be dynamic.  Flow variable references are of the form\n  ${variable}.  For example, the text\:\n     ${count} systems were modified \n  could be used to display a message about the number of systems that were\n  repaired, whose value is in the flow variable "count".\n\n  When the message is displayed, it will properly render any embedded html\n  tags, which permits creating messages with more advanced formatting.  For \n  example to display a message in italics you could use\:\n    <i>This is important</i>\n  or to display a message in red\:\n    <i>This is <span style\="color\: red">really </span> important</i>\n\n  You can create messages that contain multiple lines by entering a multiple\n  line message in the Constant Value field, or by using HTML <BR> tags for line\n  breaks.  Note that \\n characters are displayed literally and are not used for\n  creating multiple lines.\n\n</pre>\n
ccaa25b6-ac44-4292-ac61-08c5f5b91c3a.4dfb1438-6e92-4a1d-9066-c250f5220af1.description=<pre>\n\nDisplays a message to the user.\n\nInputs\:\n  message - The message text to display\n  title - The title on the message window. Defaults to "Status message".\n\nResponses\:\n  Always returns success.\n\nExamples\:\n  In order to display the message "Finished" to the user, go to the \n  detail screen for the input named "message" and change the Otherwise option\n  from Prompt User to Use Constant.  Then enter the text "Finished" into the\n  Constant Value field.\n\n  References to flow variables in the Contant Value field are expanded so that\n  the text may be dynamic.  Flow variable references are of the form\n  ${variable}.  For example, the text\:\n     ${count} systems were modified \n  could be used to display a message about the number of systems that were\n  repaired, whose value is in the flow variable "count".\n\n  When the message is displayed, it will properly render any embedded html\n  tags, which permits creating messages with more advanced formatting.  For \n  example to display a message in italics you could use\:\n    <i>This is important</i>\n  or to display a message in red\:\n    <i>This is <span style\="color\: red">really </span> important</i>\n\n  You can create messages that contain multiple lines by entering a multiple\n  line message in the Constant Value field, or by using HTML <BR> tags for line\n  breaks.  Note that \\n characters are displayed literally and are not used for\n  creating multiple lines.\n\n</pre>\n
ccaa25b6-ac44-4292-ac61-08c5f5b91c3a.9b6d8e2a-d149-42fc-aa32-b4dc6776d34b.description=This operation runs a SQL command.\n\nInputs\:\n    DBServerName - The hostname or ip address of the database server.\n    DbType - The type of database to connect to. \nValid values\: Oracle, MSSQL, Sybase, Netcool, DB2, PostgreSQL and Custom.\nDefault value\: Oracle\n    Username - The username to use when connecting to the database.\n    Password -  The password to use when connecting to the database.\n    instance - The name instance (for MSSQL Server). Leave it blank for default instance.\n    DbPort - The port to connect to.\nDefault values\: Oracle\: 1521, MSSQL\: 1433, Sybase\: 5000, Netcool\: 4100, DB2\: 50000, PostgreSQL\: 5432.\n    Database - The name of the database.\n    authenticationType - The type of authentication used to access the database (applicable only to MSSQL type). \nValid values\: sql, windows (for MSSQL)\nDefault value\: sql\n    dbClass - The classname of the JDBC driver to use.\n    dbURL - The url required to load up the driver and make your connection.\n    ssl - Specifies if the communication will be encrypted using Secure Sockets Layer (SSL) (only applicable for PostgreSQL).\nValid values\: true, false\n    SSLMode - Specifies the different levels of protection SSL can provide. If the ssl input is set to true, SSLMode must be specified, otherwise it will be ignored (only applicable for PostgreSQL).\nValid values\: allow, prefer, require, verify-ca, verify-full\n    SSLCert - Specifies the full path for the certificate file (only applicable for PostgreSQL).\n    SSLKey - Specifies the full path for the key file which must be in DER format. Check the notes section for more details about conversion to DER format (only applicable for PostgreSQL).\n    SSLRootCert - Specifies the full path of the SSL root certificate (only applicable for PostgreSQL).\n    Command - The command to execute.\n    timeout - Seconds to wait before timing out the SQL command execution. When the default value is used, there is no limit on the amount of time allowed for a running command to complete.\nDefault value\: 0\n    databasePoolingProperties - Properties for database pooling configuration. This parameter replaces the databasePooling.properties file from 9x version (you may copy-paste the file content here). Pooling is disabled by default. For more details check the /Library/Operations/Database/JDBC folder description.\nExample\: db.pooling.enable\=true\n    resultSetType - the result set type. See JDBC folder description for more details.\nValid values\: TYPE_FORWARD_ONLY, TYPE_SCROLL_INSENSITIVE,TYPE_SCROLL_SENSITIVE.\nDefault value\: TYPE_FORWARD_ONLY\n    resultSetConcurrency - the result set concurrency. See JDBC folder description for more details.\nValid values\: CONCUR_READ_ONLY, CONCUR_UPDATABLE\nDefault value\: CONCUR_READ_ONLY\n\nResults\:\n    returnResult - This is the primary output. It contains the "Command completed successfully" message if the operation succeeded, or a failure message otherwise.\n    outputText - The return result of SQL command.\n    updateCount - The update count of the command executed.\n\nResponses\:\n    success - The command was executed successfully.\n    failure - Failed to execute the command.\n\nNotes\:\n1. Check the JDBC folder description for details on how to load database connectors.\n2. In case of using subprograms like (GET_LINE, GET_LINES, NEW_LINE, PUT, PUT_LUNE) from DBMS_OUTPUT package, the DBMS_OUTPUT.ENABLE(<buffer_size>) declaration should be used before of these calls.\n3. Use the 'Command' input with caution as it can expose the target system to security risks. By exposing the 'Command' input as a prompt to the user, it will enable the user to execute any SQL command on the target system taking into account the permissions of the credentials given as inputs.\n4. SSL encryption only works for PostgreSQL.\n5. Database pooling is not supported when "ssl"\=true (only applicable for PostgreSQL).\n6. A PEM key can be converted to DER format using the openssl command\: openssl pkcs8 -topk8 -inform PEM -in my.key -outform DER -out my.key.der.\n7. For information on how to generate certificates, how to setup the postgress server to accept SSL connections and supported SSL modes please refer to the PostgreSQL official documentation.\n8. Steps for creating the SSL certificates can be found in the CP's release notes, under the "Use" section. \n\nNote\:\n    Check the JDBC folder description for details on how to load database connectors.
ccaa25b6-ac44-4292-ac61-08c5f5b91c3a.cd15826e-9431-4fab-91cc-04fe6a5a4bc2.description=<pre>\n\nDisplays a message to the user.\n\nInputs\:\n  message - The message text to display\n  title - The title on the message window. Defaults to "Status message".\n\nResponses\:\n  Always returns success.\n\nExamples\:\n  In order to display the message "Finished" to the user, go to the \n  detail screen for the input named "message" and change the Otherwise option\n  from Prompt User to Use Constant.  Then enter the text "Finished" into the\n  Constant Value field.\n\n  References to flow variables in the Contant Value field are expanded so that\n  the text may be dynamic.  Flow variable references are of the form\n  ${variable}.  For example, the text\:\n     ${count} systems were modified \n  could be used to display a message about the number of systems that were\n  repaired, whose value is in the flow variable "count".\n\n  When the message is displayed, it will properly render any embedded html\n  tags, which permits creating messages with more advanced formatting.  For \n  example to display a message in italics you could use\:\n    <i>This is important</i>\n  or to display a message in red\:\n    <i>This is <span style\="color\: red">really </span> important</i>\n\n  You can create messages that contain multiple lines by entering a multiple\n  line message in the Constant Value field, or by using HTML <BR> tags for line\n  breaks.  Note that \\n characters are displayed literally and are not used for\n  creating multiple lines.\n\n</pre>\n
ccaa25b6-ac44-4292-ac61-08c5f5b91c3a.f84f0888-b440-4251-ac08-5b0f220e6f33.description=This operation runs a SQL command.\n\nInputs\:\n    DBServerName - The hostname or ip address of the database server.\n    DbType - The type of database to connect to. \nValid values\: Oracle, MSSQL, Sybase, Netcool, DB2, PostgreSQL and Custom.\nDefault value\: Oracle\n    Username - The username to use when connecting to the database.\n    Password -  The password to use when connecting to the database.\n    instance - The name instance (for MSSQL Server). Leave it blank for default instance.\n    DbPort - The port to connect to.\nDefault values\: Oracle\: 1521, MSSQL\: 1433, Sybase\: 5000, Netcool\: 4100, DB2\: 50000, PostgreSQL\: 5432.\n    Database - The name of the database.\n    authenticationType - The type of authentication used to access the database (applicable only to MSSQL type). \nValid values\: sql, windows (for MSSQL)\nDefault value\: sql\n    dbClass - The classname of the JDBC driver to use.\n    dbURL - The url required to load up the driver and make your connection.\n    ssl - Specifies if the communication will be encrypted using Secure Sockets Layer (SSL) (only applicable for PostgreSQL).\nValid values\: true, false\n    SSLMode - Specifies the different levels of protection SSL can provide. If the ssl input is set to true, SSLMode must be specified, otherwise it will be ignored (only applicable for PostgreSQL).\nValid values\: allow, prefer, require, verify-ca, verify-full\n    SSLCert - Specifies the full path for the certificate file (only applicable for PostgreSQL).\n    SSLKey - Specifies the full path for the key file which must be in DER format. Check the notes section for more details about conversion to DER format (only applicable for PostgreSQL).\n    SSLRootCert - Specifies the full path of the SSL root certificate (only applicable for PostgreSQL).\n    Command - The command to execute.\n    timeout - Seconds to wait before timing out the SQL command execution. When the default value is used, there is no limit on the amount of time allowed for a running command to complete.\nDefault value\: 0\n    databasePoolingProperties - Properties for database pooling configuration. This parameter replaces the databasePooling.properties file from 9x version (you may copy-paste the file content here). Pooling is disabled by default. For more details check the /Library/Operations/Database/JDBC folder description.\nExample\: db.pooling.enable\=true\n    resultSetType - the result set type. See JDBC folder description for more details.\nValid values\: TYPE_FORWARD_ONLY, TYPE_SCROLL_INSENSITIVE,TYPE_SCROLL_SENSITIVE.\nDefault value\: TYPE_FORWARD_ONLY\n    resultSetConcurrency - the result set concurrency. See JDBC folder description for more details.\nValid values\: CONCUR_READ_ONLY, CONCUR_UPDATABLE\nDefault value\: CONCUR_READ_ONLY\n\nResults\:\n    returnResult - This is the primary output. It contains the "Command completed successfully" message if the operation succeeded, or a failure message otherwise.\n    outputText - The return result of SQL command.\n    updateCount - The update count of the command executed.\n\nResponses\:\n    success - The command was executed successfully.\n    failure - Failed to execute the command.\n\nNotes\:\n1. Check the JDBC folder description for details on how to load database connectors.\n2. In case of using subprograms like (GET_LINE, GET_LINES, NEW_LINE, PUT, PUT_LUNE) from DBMS_OUTPUT package, the DBMS_OUTPUT.ENABLE(<buffer_size>) declaration should be used before of these calls.\n3. Use the 'Command' input with caution as it can expose the target system to security risks. By exposing the 'Command' input as a prompt to the user, it will enable the user to execute any SQL command on the target system taking into account the permissions of the credentials given as inputs.\n4. SSL encryption only works for PostgreSQL.\n5. Database pooling is not supported when "ssl"\=true (only applicable for PostgreSQL).\n6. A PEM key can be converted to DER format using the openssl command\: openssl pkcs8 -topk8 -inform PEM -in my.key -outform DER -out my.key.der.\n7. For information on how to generate certificates, how to setup the postgress server to accept SSL connections and supported SSL modes please refer to the PostgreSQL official documentation.\n8. Steps for creating the SSL certificates can be found in the CP's release notes, under the "Use" section. \n\nNote\:\n    Check the JDBC folder description for details on how to load database connectors.
]]></descriptionCdata>
  <annotation></annotation>
  <name>alter_flow</name>
  <categories/>
  <inputs/>
  <possibleResponses>
    <opResponse id="38499c17-f2f4-42e0-b223-01f35ed20cc7">
      <annotation></annotation>
      <name>success</name>
      <isDefault>true</isDefault>
      <onFailure>false</onFailure>
      <type>RESOLVED</type>
      <matchRules/>
    </opResponse>
    <opResponse id="93c406a8-f977-4949-8b84-48d7c12ad67a">
      <annotation></annotation>
      <name>failure</name>
      <isDefault>false</isDefault>
      <onFailure>true</onFailure>
      <type>ERROR</type>
      <matchRules/>
    </opResponse>
  </possibleResponses>
  <availableResultExpressions/>
  <resultExpression id="d6c4fbf3-04e7-42cd-a2f3-ed43a76ee1d8">
    <annotation></annotation>
    <name>FailureMessage</name>
    <fieldName>FailureMessage</fieldName>
    <sourceType>RAWRESULT</sourceType>
    <filters/>
  </resultExpression>
  <iconSpec id="c4cc69db-1fc5-44ea-99f4-800976a0b875">
    <baseIcon>flow.png</baseIcon>
    <basePath>System</basePath>
    <readOnly>false</readOnly>
    <layers/>
  </iconSpec>
  <callouts/>
  <checkPointFlow>true</checkPointFlow>
  <compatibleRuntimeContext>false</compatibleRuntimeContext>
  <historyCheckPointFlow>true</historyCheckPointFlow>
  <steps>
    <step id="1629fadc-64a2-4f71-83f2-d8fb3efba143">
      <annotation>ccaa25b6-ac44-4292-ac61-08c5f5b91c3a.1629fadc-64a2-4f71-83f2-d8fb3efba143.description</annotation>
      <name>creating table</name>
      <bounds>
        <x>267.0</x>
        <y>134.0</y>
      </bounds>
      <layer>-1</layer>
      <hideInbound>false</hideInbound>
      <addResultToRunContext>false</addResultToRunContext>
      <isCriticalStep>false</isCriticalStep>
      <isNonBlocking>false</isNonBlocking>
      <isParallelStep>false</isParallelStep>
      <isSingleResponse>false</isSingleResponse>
      <recordInHistory>false</recordInHistory>
      <recordRawOutput>true</recordRawOutput>
      <recordPrimaryOutput>true</recordPrimaryOutput>
      <checkPointStep>true</checkPointStep>
      <historyCheckPointStep>true</historyCheckPointStep>
      <scriptResultStep>false</scriptResultStep>
      <userPrompt></userPrompt>
      <bindings>
        <staticBinding id="d6b802d5-b3ef-411e-acf4-c71fbd109404">
          <annotation></annotation>
          <fromContextKey>postgres_properties/DB_HOST</fromContextKey>
          <assignFromContext>true</assignFromContext>
          <assignToContext>false</assignToContext>
          <inputType>STRING</inputType>
          <isList>false</isList>
          <required>true</required>
          <isPersisted>true</isPersisted>
          <inputSymbol>DBServerName</inputSymbol>
          <listDelimiter>,</listDelimiter>
          <value></value>
          <record>false</record>
        </staticBinding>
        <staticBinding id="cf82dcee-4837-40a0-97b0-7e03672222ed">
          <annotation></annotation>
          <assignFromContext>false</assignFromContext>
          <assignToContext>false</assignToContext>
          <inputType>STRING</inputType>
          <isList>false</isList>
          <required>false</required>
          <isPersisted>true</isPersisted>
          <inputSymbol>DbType</inputSymbol>
          <listDelimiter>,</listDelimiter>
          <value>PostgreSQL</value>
          <record>false</record>
        </staticBinding>
        <identityBinding id="08dcb97f-2b79-4690-9276-943600c1c984">
          <annotation></annotation>
          <assignFromContext>false</assignFromContext>
          <assignToContext>false</assignToContext>
          <inputType>STRING</inputType>
          <isList>false</isList>
          <required>true</required>
          <isPersisted>true</isPersisted>
          <inputSymbol>Username</inputSymbol>
          <listDelimiter>,</listDelimiter>
          <record>false</record>
          <link>
            <refId>01ab384b-b9f7-4db2-b955-3ce85f96266a</refId>
            <refName>postgres</refName>
          </link>
          <identityAttribute>USERNAME</identityAttribute>
        </identityBinding>
        <identityBinding id="acc95a26-ad85-4f11-bed3-6fc2168ec907">
          <annotation></annotation>
          <assignFromContext>false</assignFromContext>
          <assignToContext>false</assignToContext>
          <inputType>ENCRYPTED</inputType>
          <isList>false</isList>
          <required>true</required>
          <isPersisted>true</isPersisted>
          <inputSymbol>Password</inputSymbol>
          <listDelimiter>,</listDelimiter>
          <record>false</record>
          <link>
            <refId>01ab384b-b9f7-4db2-b955-3ce85f96266a</refId>
            <refName>postgres</refName>
          </link>
          <identityAttribute>PASSWORD</identityAttribute>
        </identityBinding>
        <staticBinding id="8f3cc1df-16ef-4c95-960c-4f106f5a544e">
          <annotation></annotation>
          <fromContextKey>postgres_properties/DB_PORT</fromContextKey>
          <assignFromContext>true</assignFromContext>
          <assignToContext>false</assignToContext>
          <inputType>STRING</inputType>
          <isList>false</isList>
          <required>false</required>
          <isPersisted>true</isPersisted>
          <inputSymbol>DBPort</inputSymbol>
          <listDelimiter>,</listDelimiter>
          <record>false</record>
        </staticBinding>
        <staticBinding id="257b5507-e0e8-4076-b789-67b45ddbe5be">
          <annotation></annotation>
          <assignFromContext>false</assignFromContext>
          <assignToContext>false</assignToContext>
          <inputType>STRING</inputType>
          <isList>false</isList>
          <required>true</required>
          <isPersisted>true</isPersisted>
          <inputSymbol>Database</inputSymbol>
          <listDelimiter>,</listDelimiter>
          <value>dvdrental</value>
          <record>false</record>
        </staticBinding>
        <staticBinding id="ef21ca50-dffe-4b7b-8b02-05edd5aebf09">
          <annotation></annotation>
          <assignFromContext>false</assignFromContext>
          <assignToContext>false</assignToContext>
          <inputType>STRING</inputType>
          <isList>false</isList>
          <required>true</required>
          <isPersisted>true</isPersisted>
          <inputSymbol>Command</inputSymbol>
          <listDelimiter>,</listDelimiter>
          <value>create table temp(id integer,name varchar(30));</value>
          <record>false</record>
        </staticBinding>
        <staticBinding id="4d88b522-c966-4d41-a157-54dd6a1bf72a">
          <annotation></annotation>
          <assignFromContext>false</assignFromContext>
          <assignToContext>false</assignToContext>
          <inputType>STRING</inputType>
          <isList>false</isList>
          <required>false</required>
          <isPersisted>true</isPersisted>
          <inputSymbol>timeout</inputSymbol>
          <listDelimiter>,</listDelimiter>
          <record>false</record>
        </staticBinding>
      </bindings>
      <transitions>
        <transition id="edd73aff-34a9-48f7-b070-47abbb57c4a1">
          <annotation></annotation>
          <name>success</name>
          <command>NEXT</command>
          <linkMode>false</linkMode>
          <responseSymbol>success</responseSymbol>
          <shouldHandoff>false</shouldHandoff>
          <transitionValue>0.0</transitionValue>
          <destination>
            <refId>cd15826e-9431-4fab-91cc-04fe6a5a4bc2</refId>
          </destination>
          <source>
            <refId>1629fadc-64a2-4f71-83f2-d8fb3efba143</refId>
          </source>
          <positions>
            <point>
              <x>317.0</x>
              <y>168.0</y>
            </point>
            <point>
              <x>294.0</x>
              <y>294.0</y>
            </point>
          </positions>
          <labelPosition>
            <x>333.0</x>
            <y>0.0</y>
          </labelPosition>
        </transition>
        <transition id="e1ca02aa-dbc9-417c-9c91-fec235c67e81">
          <annotation></annotation>
          <name>failure</name>
          <command>NEXT</command>
          <linkMode>false</linkMode>
          <responseSymbol>failure</responseSymbol>
          <shouldHandoff>false</shouldHandoff>
          <transitionValue>0.0</transitionValue>
          <destination>
            <refId>1752054b-ffa1-412b-965b-c8ca12939960</refId>
          </destination>
          <source>
            <refId>1629fadc-64a2-4f71-83f2-d8fb3efba143</refId>
          </source>
          <positions>
            <point>
              <x>317.0</x>
              <y>168.0</y>
            </point>
            <point>
              <x>600.0</x>
              <y>469.0</y>
            </point>
          </positions>
          <labelPosition>
            <x>333.0</x>
            <y>0.0</y>
          </labelPosition>
        </transition>
      </transitions>
      <properties/>
      <opRef>
        <refId>a8dd819d-158a-43c4-9648-f14e561a5381</refId>
      </opRef>
      <assignments>
        <flowVariableAssignment id="bd8ee694-09f5-4653-84a4-6edabcec2983">
          <annotation></annotation>
          <name>assignment</name>
          <action>OVERWRITE</action>
          <assignmentTargetType>FLOW_VARIABLE</assignmentTargetType>
          <contextKey>outputText</contextKey>
          <expression id="3cba5db8-f6c2-415f-a1e1-c6a3486b7a4f">
            <annotation></annotation>
            <name>Result Field: outputText</name>
            <fieldName>outputText</fieldName>
            <sourceType>RAWRESULT</sourceType>
            <filters/>
          </expression>
        </flowVariableAssignment>
      </assignments>
      <throttleSize>0</throttleSize>
    </step>
    <returnStep id="b86e987a-155c-44c8-8245-9eafefcae808">
      <annotation></annotation>
      <name>Resolved : success</name>
      <bounds>
        <x>417.0</x>
        <y>38.0</y>
      </bounds>
      <layer>-1</layer>
      <hideInbound>false</hideInbound>
      <addResultToRunContext>false</addResultToRunContext>
      <isCriticalStep>false</isCriticalStep>
      <isNonBlocking>false</isNonBlocking>
      <isParallelStep>false</isParallelStep>
      <isSingleResponse>false</isSingleResponse>
      <recordInHistory>false</recordInHistory>
      <recordRawOutput>true</recordRawOutput>
      <recordPrimaryOutput>true</recordPrimaryOutput>
      <checkPointStep>true</checkPointStep>
      <historyCheckPointStep>true</historyCheckPointStep>
      <scriptResultStep>false</scriptResultStep>
      <userPrompt></userPrompt>
      <bindings/>
      <transitions>
        <transition id="e291e8eb-acc9-4a23-852c-ecf15786ee8b">
          <annotation></annotation>
          <name>return</name>
          <command>NEXT</command>
          <linkMode>false</linkMode>
          <responseSymbol>success</responseSymbol>
          <shouldHandoff>false</shouldHandoff>
          <transitionValue>0.0</transitionValue>
          <destination>
            <refId>b86e987a-155c-44c8-8245-9eafefcae808</refId>
          </destination>
          <source>
            <refId>b86e987a-155c-44c8-8245-9eafefcae808</refId>
          </source>
          <positions/>
        </transition>
      </transitions>
      <properties/>
      <returnStepType>RESOLVED</returnStepType>
      <assignments/>
    </returnStep>
    <returnStep id="1752054b-ffa1-412b-965b-c8ca12939960">
      <annotation></annotation>
      <name>Error : failure</name>
      <bounds>
        <x>396.0</x>